<?xml version='1.0' encoding='UTF-8'?>
<nodes>
  <node id="1326225978" x="-246.428603" y="170.54867"/>
  <node id="1326225984" x="66.950914" y="54.798751"/>
  <node id="1326225994" x="-110.932389" y="-27.916024" shape="-110.817784,-32.386691 -107.287092,-30.506740 -106.464713,-27.716342 -108.411529,-24.222074 -111.906679,-26.169382 -115.399963,-28.117963 -113.451383,-31.611247 -110.817784,-32.386691 -110.817784,-32.386691"/>
  <node id="1326226005" x="-137.105931" y="-33.661917"/>
  <node id="1326226012" x="-210.353947" y="103.160001" shape="-210.222781,98.689789 -206.699078,100.582806 -210.478864,107.630392 -214.005210,105.742302 -214.823475,103.007292 -212.913496,99.492753 -210.222781,98.689789 -210.222781,98.689789"/>
  <node id="1326226017" x="-75.434744" y="-94.647133" shape="-75.323714,-99.147133 -71.791524,-97.247133 -75.544542,-90.176345 -79.077253,-92.052498 -80.434744,-93.947133 -77.634744,-99.147133 -75.323714,-99.147133"/>
  <node id="1326226018" x="-204.382384" y="219.400557" shape="-203.469811,217.359182 -199.914839,219.603144 -201.863927,223.096145 -202.432859,223.425399 -206.432542,223.375082 -206.563027,219.895324 -206.382226,219.375399 -203.469811,217.359182 -203.469811,217.359182"/>
  <node id="1452884107" x="184.504162" y="-368.396241" shape="183.999212,-372.839778 187.756022,-371.466324 188.975325,-368.302947 187.112225,-364.763335 185.038647,-363.956159 181.272787,-365.304604 182.621232,-369.070463 182.625757,-369.082968 183.999212,-372.839778 183.999212,-372.839778"/>
  <node id="1452884154" x="150.400685" y="-280.712384" shape="150.458364,-285.184148 154.012704,-283.349299 154.867713,-280.498698 152.909953,-277.010550 149.415004,-278.972145 145.934525,-280.943507 147.905888,-284.423985 150.458364,-285.184148 150.458364,-285.184148"/>
  <node id="1452884155" x="73.170765" y="-269.866838" shape="70.633276,-273.549385 74.136286,-271.618343 74.147915,-271.611882 77.638003,-269.657582 75.683702,-266.167494 72.990215,-265.398348 69.487643,-267.330184 68.702234,-270.046375 70.633276,-273.549385 70.633276,-273.549385"/>
  <node id="1452884157" x="78.805286" y="-266.711746" shape="78.906227,-271.182743 82.442648,-269.313591 83.271125,-266.474516 81.295006,-262.996736 74.338048,-266.921002 76.292349,-270.411090 78.906227,-271.182743 78.906227,-271.182743"/>
  <node id="1452884163" x="58.5315" y="-243.316842" shape="58.709943,-247.785417 62.213425,-245.855232 62.995486,-243.046980 60.994002,-239.583736 54.067167,-243.580913 56.064157,-247.046751 58.709943,-247.785417 58.709943,-247.785417"/>
  <node id="1452884319" x="-204.588319" y="235.770366" shape="-206.228633,234.626089 -202.575898,234.795603 -202.043418,242.591178 -206.031002,242.906098 -206.952976,242.655742 -210.233604,240.367187 -206.575582,234.745287 -206.228633,234.626089 -206.228633,234.626089"/>
  <node id="1716080380" x="-5.749094" y="188.61181" shape="-8.294950,184.935043 -1.280105,188.779554 -3.201896,192.287648 -5.891428,193.081680 -9.410391,191.179865 -10.218021,188.442434 -8.294950,184.935043 -8.294950,184.935043"/>
  <node id="2789326868" x="29.88929" y="-293.725844" shape="27.324644,-297.389530 30.841835,-295.484439 30.854811,-295.477349 34.357821,-293.546307 32.426779,-290.043297 29.783580,-289.254958 26.249155,-291.127880 25.419554,-293.872339 27.324644,-297.389530 27.324644,-297.389530"/>
  <node id="2789326897" x="-125.342522" y="-35.947069"/>
  <node id="2789326916" x="65.881311" y="67.903551" shape="64.181311,62.503551 68.281311,62.803551 67.781311,68.003551 67.651300,68.834753 65.788896,72.374732 62.248917,70.512327 60.381311,69.503551 64.181311,62.503551"/>
  <node id="2789326927" x="22.814574" y="149.683315"/>
  <node id="2789326930" x="20.929845" y="153.250561"/>
  <node id="2789326934" x="18.437024" y="157.965304" shape="18.538614,153.494322 22.074764,155.363987 22.907319,158.093622 21.016546,161.618531 18.335390,162.436285 14.799259,160.566585 18.538614,153.494322 18.538614,153.494322"/>
  <node id="2789326942" x="0.440193" y="192.002403"/>
  <node id="2936890068" x="-59.602592" y="-124.438533" shape="-59.491520,-128.909289 -55.959344,-127.032129 -55.217860,-124.184885 -57.088719,-120.649367 -59.713622,-119.967776 -63.245816,-121.844902 -61.368680,-125.377113 -59.491520,-128.909289 -59.491520,-128.909289"/>
  <node id="2936890074" x="149.828984" y="-100.875359" shape="149.931858,-105.346312 153.467471,-103.475631 151.592751,-99.932425 149.706883,-96.404890 146.179348,-98.290759 145.357504,-100.951979 147.207392,-104.498515 149.931858,-105.346312 149.931858,-105.346312"/>
  <node id="2936890077" x="112.588016" y="-85.885652" shape="112.737488,-90.353107 116.255237,-88.449047 117.058138,-85.751441 115.162720,-82.229028 112.397010,-81.417597 108.898968,-83.357624 112.737488,-90.353107 112.737488,-90.353107"/>
  <node id="2936890079" x="135.285688" y="-73.67199" shape="135.407789,-78.142459 138.935324,-76.256590 135.175648,-69.201208 131.643038,-71.077553 130.815566,-73.806201 132.710984,-77.328614 135.407789,-78.142459 135.407789,-78.142459"/>
  <node id="2936890085" x="87.026386" y="-39.795751" shape="87.217392,-44.263806 90.715434,-42.323779 91.497142,-39.684671 89.619975,-36.152498 86.087803,-38.029665 86.075213,-38.036413 82.556537,-39.938759 84.458883,-43.457435 87.217392,-44.263806 87.217392,-44.263806"/>
  <node id="2936890088" x="110.627657" y="-27.248119" shape="110.737697,-31.718901 114.270307,-29.842556 112.393056,-26.308244 110.513305,-22.777445 106.982507,-24.657196 106.156925,-27.360176 108.034864,-30.891939 110.737697,-31.718901 110.737697,-31.718901"/>
  <node id="2936890092" x="-199.298163" y="82.511556" shape="-199.173775,78.041150 -195.647206,79.928823 -194.829639,82.691262 -196.760814,86.194199 -199.400498,86.997072 -202.924202,85.104055 -201.069336,81.582607 -201.061448,81.567720 -199.173775,78.041150 -199.173775,78.041150"/>
  <node id="3542137755" x="-48.177242" y="7.048625"/>
  <node id="3542137756" x="-45.346688" y="8.636735"/>
  <node id="3610689518" x="201.247378" y="-197.631768" shape="201.358228,-202.102530 204.890497,-200.225545 201.162037,-193.160446 197.619116,-195.017248 196.780513,-197.848842 198.740918,-201.335504 201.358228,-202.102530 201.358228,-202.102530"/>
  <node id="3613317452" x="66.144765" y="64.652558"/>
  <node id="3748915811" x="200.410392" y="-252.601421"/>
  <node id="3939323017" x="-130.094622" y="260.852986" shape="-132.613079,257.157398 -125.625811,261.025415 -127.551279,264.531492 -130.166852,265.324539 -133.715202,263.478134 -134.562167,260.650399 -132.613079,257.157398 -132.613079,257.157398"/>
  <node id="4107392354" x="94.440221" y="3.157279" shape="94.554573,-1.313395 98.085371,0.566356 94.326262,7.627963 90.795298,5.748522 89.976504,2.882998 91.981416,-0.578263 94.554573,-1.313395 94.554573,-1.313395"/>
  <node id="4107392360" x="-11.742989" y="26.682909" shape="-3.642989,26.382909 -7.342989,33.482909 -14.442989,29.782909 -11.042989,22.582909 -4.142989,22.482909 -3.642989,26.382909"/>
  <node id="4107392362" x="-175.087434" y="37.283052" shape="-174.962434,32.812663 -171.436123,34.700819 -170.814032,38.601396 -173.578068,41.492781 -175.212422,41.753441 -178.738738,39.865295 -176.850589,36.338974 -174.962434,32.812663 -174.962434,32.812663"/>
  <node id="4107392366" x="71.269872" y="46.686065" shape="71.384444,42.215397 74.915149,44.095321 71.155576,51.156740 67.624755,49.277034 67.364351,44.507325 70.669551,42.254404 71.384444,42.215397 71.384444,42.215397"/>
  <node id="4107392380" x="-108.264958" y="272.841401" shape="-110.808301,269.162895 -103.794827,272.975300 -105.689999,276.497845 -108.304542,277.313362 -111.866277,275.492911 -112.733769,272.668972 -110.808301,269.162895 -110.808301,269.162895"/>
  <node id="4107392382" x="-90.407737" y="282.448802" shape="-92.982696,278.792358 -85.937564,282.581281 -87.831616,286.104428 -90.430559,286.920880 -93.999092,285.113791 -94.877868,282.314903 -92.982696,278.792358 -92.982696,278.792358"/>
  <node id="4107392385" x="-114.510412" y="330.045356" shape="-114.487590,325.573278 -110.919057,327.380367 -110.039255,330.138936 -111.902582,333.678430 -118.981604,329.953498 -117.119641,326.413287 -114.487590,325.573278 -114.487590,325.573278"/>
  <node id="4107392386" x="-89.309214" y="343.312246" shape="-89.172027,338.839710 -85.652972,340.741356 -87.549534,344.262785 -89.450613,347.782146 -92.969973,345.881067 -93.780371,343.218666 -91.917044,339.679172 -89.172027,338.839710 -89.172027,338.839710"/>
  <node id="4169020616" x="173.557654" y="-267.713537" shape="173.629334,-272.185098 177.177911,-270.339130 178.024433,-267.494702 176.062653,-264.008813 169.090659,-267.927908 171.048954,-271.415756 173.629334,-272.185098 173.629334,-272.185098"/>
  <node id="4298918943" x="-34.160181" y="-172.318143" shape="-34.064690,-176.789259 -30.525993,-174.924420 -32.393878,-171.379967 -34.270229,-167.847361 -37.802835,-169.723713 -38.629927,-172.464330 -36.725079,-175.981652 -34.064690,-176.789259 -34.064690,-176.789259"/>
  <node id="4900190160" x="-200.993179" y="281.292897" shape="-199.314306,277.147853 -198.999382,281.135499 -198.684586,285.123093 -202.672180,285.437889 -204.509029,284.056735 -205.313759,280.138520 -203.301890,277.462773 -199.314306,277.147853 -199.314306,277.147853"/>
  <node id="5113434415" x="101.369926" y="-308.023712" shape="98.857384,-311.723325 105.838191,-307.837691 103.902069,-304.337487 101.188410,-303.555261 97.686256,-305.487855 96.902711,-308.233446 98.857384,-311.723325 98.857384,-311.723325"/>
  <node id="5113434585" x="-35.436979" y="14.094785" shape="-29.936979,12.494785 -33.736979,19.494785 -35.604561,18.563780 -39.112724,16.642116 -39.905575,13.916873 -37.975807,10.413161 -29.936979,12.494785"/>
  <node id="5113434588" x="-107.556419" y="-34.256355" shape="-107.440840,-38.726997 -103.910558,-36.846277 -103.087930,-34.053917 -105.038331,-30.561649 -107.671024,-29.785688 -111.201716,-31.665639 -109.321560,-35.196715 -107.440840,-38.726997 -107.440840,-38.726997"/>
  <node id="5113434591" x="29.545024" y="136.94796" shape="29.646513,132.481569 33.186492,134.343974 33.046750,134.609588 29.444285,141.418961 25.907780,139.549970 25.074619,136.823539 26.962318,133.296983 29.646513,132.481569 29.646513,132.481569"/>
  <node id="5113525260" x="-112.709863" y="129.97942" shape="-112.621521,125.508157 -109.079847,127.367335 -108.240916,130.148280 -110.163583,133.655894 -117.178867,129.812089 -115.257401,126.303818 -112.621521,125.508157 -112.621521,125.508157"/>
  <node id="5113526106" x="-118.919226" y="126.578577" shape="-121.466816,122.903011 -117.958493,124.824441 -114.450222,126.745908 -116.371688,130.254179 -119.028432,131.049379 -122.561391,129.173694 -123.388233,126.411310 -121.466816,122.903011 -121.466816,122.903011"/>
  <node id="5113526108" x="-43.177898" y="168.08993" shape="-43.049906,163.619626 -39.524860,165.510141 -38.708971,168.259306 -40.632042,171.766697 -47.646867,167.921644 -45.724650,164.413784 -43.049906,163.619626 -43.049906,163.619626"/>
  <node id="685074815" x="195.729068" y="-187.102404"/>
  <node id="685074818" x="-64.087147" y="296.598815" shape="-63.945972,292.128908 -60.426516,294.029811 -64.228069,301.068730 -67.747632,299.168027 -68.557320,296.466336 -66.663268,292.943189 -63.945972,292.128908 -63.945972,292.128908"/>
  <node id="7331748984" x="2.119249" y="24.854943"/>
  <node id="8559297054" x="-216.844925" y="-265.432824" shape="-216.653704,-269.900870 -213.155756,-267.960675 -212.374489,-265.309512 -214.261313,-261.782488 -217.788337,-263.669312 -217.804992,-263.678324 -221.313993,-265.598457 -219.393859,-269.107458 -216.653704,-269.900870 -216.653704,-269.900870"/>
  <node id="8995018952" x="38.56896" y="168.558209"/>
  <node id="8995018953" x="34.985588" y="166.842008"/>
  <node id="Custom58" x="-280.308868" y="-204.167592"/>
  <node id="Custom59" x="23.164164999999997" y="-78.842369"/>
  <node id="Custom60" x="-363.13320899999997" y="-53.142848000000015"/>
  <node id="Custom61" x="-153.190631" y="305.23801100000003"/>
  <node id="Custom62" x="-147.650596" y="63.242414"/>
  <node id="Custom63" x="28.346576" y="222.434041"/>
  <node id="Custom64" x="206.886291" y="-208.24355500000001"/>
  <node id="Custom65" x="-84.516993" y="-199.589486"/>
  <node id="Custom66" x="-227.20963" y="278.556543"/>
  <node id="Custom67" x="-44.720265" y="0.9615209999999905"/>
  <node id="Custom68" x="-97.760541" y="101.501456"/>
  <node id="Custom69" x="-132.340855" y="151.858972"/>
  <node id="Custom70" x="-26.941602" y="137.81580100000002"/>
  <node id="Custom71" x="-41.934366" y="2.573565"/>
  <node id="Custom72" x="-31.169486" y="8.634813"/>
  <node id="Custom73" x="39.63672299999999" y="-43.409164"/>
  <node id="Custom74" x="217.228465" y="-242.798365"/>
  <node id="Custom75" x="-201.195215" y="-293.647453"/>
  <node id="Custom76" x="-61.623491" y="-343.286423"/>
  <node id="Custom77" x="-129.25176799999997" y="417.25910400000004"/>
  <node id="Custom78" x="78.092753" y="-232.011969"/>
  <node id="Custom79" x="41.223980000000005" y="-253.323971"/>
  <node id="Custom80" x="43.887365" y="-340.223077"/>
  <node id="Custom81" x="-252.104209" y="317.751579"/>
  <node id="Custom82" x="49.042751" y="-60.331323"/>
  <node id="Custom83" x="-182.630688" y="337.66207699999995"/>
  <node id="Custom84" x="-256.420118" y="-225.659929"/>
  <node id="Custom85" x="-239.791838" y="-256.951778"/>
  <node id="Custom86" x="332.4289739999999" y="-723.229455"/>
</nodes>
