<?xml version="1.0" encoding="UTF-8"?>

<!-- generated on 2023-11-07 23:35:12 by Eclipse SUMO duarouter Version 1.12.0
<configuration xmlns:xsi="http://www.w3.org/2001/XMLSchema-instance" xsi:noNamespaceSchemaLocation="http://sumo.dlr.de/xsd/duarouterConfiguration.xsd">

    <input>
        <net-file value="/home/test/ros2_ws/src/webots_ros2_suv//worlds/ulstu_net/sumo.net.xml"/>
        <route-files value="/home/test/ros2_ws/src/webots_ros2_suv//worlds/ulstu_net/sumo.trip.xml"/>
    </input>

    <output>
        <output-file value="/home/test/ros2_ws/src/webots_ros2_suv//worlds/ulstu_net/sumo.rou.xml"/>
        <alternatives-output value="/home/test/ros2_ws/src/webots_ros2_suv//worlds/ulstu_net/sumo.rou.alt.xml"/>
    </output>

    <report>
        <ignore-errors value="true"/>
    </report>

</configuration>
-->

<routes xmlns:xsi="http://www.w3.org/2001/XMLSchema-instance" xsi:noNamespaceSchemaLocation="http://sumo.dlr.de/xsd/routes_file.xsd">
    <vehicle id="1" depart="1.00">
        <route edges="-290155058 -117802262_2 -117802262_1 -30341017_1"/>
    </vehicle>
    <vehicle id="7" depart="7.00">
        <route edges="274167620_2"/>
    </vehicle>
    <vehicle id="11" depart="11.00">
        <route edges="-408832713 -117802267_4 117802267_4 408832713 290155067_1 290155067_2 347989902 347989903_1 347989903_2 347989903_3 274167626_1 274167626_2 274167623 274167625 159497168 159497160_1 159497160_2 178758964_1 178758964_2 178758964_4 -178758964_4"/>
    </vehicle>
    <vehicle id="13" depart="13.00">
        <route edges="-117802267_4 117802267_4 408832713 290155067_1 290155067_2 347989902 347989903_1 347989903_2 347989903_3 274167626_1 274167626_2 274167623 274167625 159497168 159497160_1 -117802268_4"/>
    </vehicle>
    <vehicle id="18" depart="18.00">
        <route edges="347989903_1 347989903_2 347989903_3 274167626_1"/>
    </vehicle>
    <vehicle id="22" depart="22.00">
        <route edges="-117802267_2 290155069 -290155069 117802267_2 117802267_3 117802267_4 408832713 290155067_1 290155067_2 347989902 347989903_1 347989903_2 -347989903_2"/>
    </vehicle>
    <vehicle id="23" depart="23.00">
        <route edges="-117802268_1 117802267_3 117802267_4 408832713 290155067_1 290155067_2 347989902 347989903_1 347989903_2 347989903_3 274167626_1 274167626_2 274167623 274167625 159497168 159497160_1 159497160_2 117802260_1 117802260_2"/>
    </vehicle>
    <vehicle id="26" depart="26.00">
        <route edges="-274167626_2 274167626_2 274167623 274167625 159497168 159497160_1 -117802268_4 525684686"/>
    </vehicle>
    <vehicle id="30" depart="30.00">
        <route edges="-290155058"/>
    </vehicle>
    <vehicle id="31" depart="31.00">
        <route edges="-290155058 117802262_4 -117802263"/>
    </vehicle>
    <vehicle id="33" depart="33.00">
        <route edges="-290155058 -117802262_2"/>
    </vehicle>
    <vehicle id="35" depart="35.00">
        <route edges="-290155058"/>
    </vehicle>
    <vehicle id="36" depart="36.00">
        <route edges="-290155058 117802262_4"/>
    </vehicle>
    <vehicle id="37" depart="37.00">
        <route edges="-290155058 117802262_4 -117802263"/>
    </vehicle>
    <vehicle id="39" depart="39.00">
        <route edges="-290155058 117802262_4 -117802263"/>
    </vehicle>
    <vehicle id="41" depart="41.00">
        <route edges="159497168 159497160_1 159497160_2 178758964_1 178758964_2 178758964_4 178758964_3 132042051_1 390655650_1 498638642"/>
    </vehicle>
    <vehicle id="42" depart="42.00">
        <route edges="117802262_3 -117802262_3 -117802262_4 -117802262_2 -117802262_1 -30341017_1"/>
    </vehicle>
    <vehicle id="45" depart="45.00">
        <route edges="-117802268_1 117802267_3 117802267_4 408832713 290155067_1 290155067_2 347989902 347989903_1 347989903_2 347989903_3 274167626_1 274167626_2"/>
    </vehicle>
    <vehicle id="46" depart="46.00">
        <route edges="30341017_1 30341017_2 132042036"/>
    </vehicle>
    <vehicle id="51" depart="51.00">
        <route edges="274167620_6 -274167620_6 -274167620_4 -274167620_3 -274167620_2 -274167620_1 -117794537 117794537 274167620_1"/>
    </vehicle>
    <vehicle id="53" depart="53.00">
        <route edges="-117802268_3 117802268_3 117802268_4 159497160_2 178758964_1 178758964_2 178758964_4 178758964_3 132042051_1 132042051_2"/>
    </vehicle>
    <vehicle id="54" depart="54.00">
        <route edges="117802268_1 -117802268_1 117802267_3 117802267_4 408832713 290155067_1 290155067_2 347989902 347989903_1 347989903_2 408832717 784784859"/>
    </vehicle>
    <vehicle id="56" depart="56.00">
        <route edges="132042023_1 132042018 153550567_2 117794537 274167620_1 274167620_2 -274167620_2"/>
    </vehicle>
    <vehicle id="59" depart="59.00">
        <route edges="178758964_2 178758964_4 -178758964_4"/>
    </vehicle>
    <vehicle id="65" depart="65.00">
        <route edges="-290155069 117802267_2 -117802267_2"/>
    </vehicle>
    <vehicle id="67" depart="67.00">
        <route edges="-117802267_3 117802267_3 117802267_4 408832713 290155067_1 290155067_2 347989902 347989903_1 347989903_2 347989903_3 274167626_1 274167626_2 274167623 274167625 159497168 159497160_1 159497160_2 178758964_1"/>
    </vehicle>
    <vehicle id="72" depart="72.00">
        <route edges="117802267_2 117802267_3 117802267_4 408832713 290155067_1 290155067_2 -290155067_2 -290155067_1"/>
    </vehicle>
    <vehicle id="76" depart="76.00">
        <route edges="117802267_3 117802267_4 408832713 290155067_1 290155067_2 347989902 347989903_1 347989903_2 347989903_3 274167626_1 274167626_2 274167623 274167625 159497168 159497160_1 159497160_2 178758964_1 178758964_2 178758964_4"/>
    </vehicle>
    <vehicle id="78" depart="78.00">
        <route edges="-347989903_3 347989903_3 274167626_1 274167626_2 274167623"/>
    </vehicle>
    <vehicle id="80" depart="80.00">
        <route edges="-117802267_2 290155069 -290155069 117802267_2 117802267_3 117802267_4 408832713 290155067_1 290155067_2 347989902 347989903_1 347989903_2 347989903_3 274167626_1 274167626_2"/>
    </vehicle>
    <vehicle id="86" depart="86.00">
        <route edges="117802268_4 159497160_2 178758964_1 178758964_2 178758964_4 390798956"/>
    </vehicle>
    <vehicle id="88" depart="88.00">
        <route edges="-117802267_4 117802267_4 408832713 290155067_1 290155067_2 347989902 347989903_1 347989903_2 347989903_3 274167626_1 274167626_2 274167623 274167625 159497168 159497160_1 159497160_2 178758964_1 178758964_2 178758964_4 178758964_3 132042051_1"/>
    </vehicle>
    <vehicle id="89" depart="89.00">
        <route edges="117802267_2 117802267_3 117802267_4 408832713 290155067_1 290155067_2 347989902 347989903_1 347989903_2 347989903_3 274167626_1 274167626_2 274167623 274167625 159497168 159497160_1 159497160_2"/>
    </vehicle>
    <vehicle id="93" depart="93.00">
        <route edges="408832713 290155067_1 290155067_2 -290155067_2 -290155067_1 -408832713"/>
    </vehicle>
    <vehicle id="95" depart="95.00">
        <route edges="117802267_2 117802267_3 117802267_4 408832713 290155067_1 290155067_2 347989902 347989903_1 347989903_2 347989903_3 274167626_1 274167626_2 274167623 274167625 159497168 159497160_1 159497160_2 117802260_1 117802260_2"/>
    </vehicle>
    <vehicle id="97" depart="97.00">
        <route edges="117802267_4 408832713 290155067_1 290155067_2 347989902 347989903_1 347989903_2 347989903_3 274167626_1 274167626_2 274167623 274167625 971866791 971866790 415629014"/>
    </vehicle>
    <vehicle id="105" depart="105.00">
        <route edges="-274167626_2 274167626_2 274167623 274167625 159497168 159497160_1 159497160_2 178758964_1 178758964_2 178758964_4 390798956"/>
    </vehicle>
    <vehicle id="126" depart="126.00">
        <route edges="-117802267_2 290155069 -290155069 117802267_2 117802267_3 117802267_4 408832713 290155067_1 290155067_2 347989902 347989903_1 347989903_2 347989903_3 274167626_1 274167626_2 274167623 274167625 159497168 159497160_1"/>
    </vehicle>
    <vehicle id="127" depart="127.00">
        <route edges="971866791"/>
    </vehicle>
    <vehicle id="128" depart="128.00">
        <route edges="-117802267_2 290155069 -290155069 117802267_2 117802267_3 117802267_4 408832713 290155067_1 290155067_2 -290155067_2 -290155067_1"/>
    </vehicle>
    <vehicle id="131" depart="131.00">
        <route edges="117802260_1 -117802260_1 178758964_1 178758964_2 178758964_4 -178758964_4"/>
    </vehicle>
    <vehicle id="134" depart="134.00">
        <route edges="274167620_3 -274167620_3 -274167620_2 -274167620_1 -117794537"/>
    </vehicle>
    <vehicle id="137" depart="137.00">
        <route edges="-159497160_2"/>
    </vehicle>
    <vehicle id="140" depart="140.00">
        <route edges="274167626_1 -274167626_1"/>
    </vehicle>
    <vehicle id="141" depart="141.00">
        <route edges="274167620_1 -274167620_1 -117794537 117794537"/>
    </vehicle>
    <vehicle id="143" depart="143.00">
        <route edges="347989903_3 274167626_1 274167626_2 274167623 274167625 159497168 159497160_1 -117802268_4 -117802268_3"/>
    </vehicle>
    <vehicle id="144" depart="144.00">
        <route edges="117802267_2 117802267_3 117802267_4 408832713 290155067_1 290155067_2 347989902 347989903_1 347989903_2 347989903_3 274167626_1 274167626_2 274167623 274167625 159497168 159497160_1 159497160_2 117802260_1 117802260_2"/>
    </vehicle>
    <vehicle id="146" depart="146.00">
        <route edges="274167620_1 -274167620_1 -117794537 117794537"/>
    </vehicle>
    <vehicle id="148" depart="148.00">
        <route edges="117802267_2 117802267_3 117802267_4 408832713 290155067_1 290155067_2 347989902 347989903_1 347989903_2 347989903_3 274167626_1 274167626_2 274167623 274167625 159497168 159497160_1 159497160_2 117802260_1 -117802260_1"/>
    </vehicle>
    <vehicle id="152" depart="152.00">
        <route edges="-159497168 159497168 159497160_1 159497160_2 178758964_1 -178758964_1"/>
    </vehicle>
    <vehicle id="153" depart="153.00">
        <route edges="-290155069 117802267_2 117802267_3 117802267_4 408832713 290155067_1 290155067_2 347989902 347989903_1 347989903_2 347989903_3 274167626_1 274167626_2 274167623 274167625 159497168 159497160_1 159497160_2 178758964_1 178758964_2 178758964_4 178758964_3 132042051_1 390655650_1 498638642"/>
    </vehicle>
    <vehicle id="165" depart="165.00">
        <route edges="347989902 347989903_1 347989903_2 347989903_3 274167626_1 274167626_2 274167623 274167625 159497168 159497160_1 159497160_2 117802260_1"/>
    </vehicle>
    <vehicle id="172" depart="172.00">
        <route edges="-347989903_2 290155060 274167626_2 274167623 274167625 971866791 971866790 415629014"/>
    </vehicle>
    <vehicle id="179" depart="179.00">
        <route edges="-117802268_1 117802267_3 117802267_4 408832713 290155067_1 290155067_2 347989902 347989903_1 347989903_2 347989903_3 274167626_1 274167626_2 274167623 274167625 159497168 159497160_1 159497160_2 178758964_1 178758964_2 178758964_4 178758964_3 132042051_1 132042051_2"/>
    </vehicle>
    <vehicle id="181" depart="181.00">
        <route edges="178758964_2 178758964_4"/>
    </vehicle>
    <vehicle id="192" depart="192.00">
        <route edges="117802262_4 -117802262_4 -117802262_2 117802262_2"/>
    </vehicle>
    <vehicle id="200" depart="200.00">
        <route edges="117802267_4 408832713 290155067_1 290155067_2 -290155067_2 -290155067_1"/>
    </vehicle>
    <vehicle id="201" depart="201.00">
        <route edges="117802268_4 159497160_2 178758964_1 178758964_2 178758964_4 178758964_3 132042051_1 390655650_1 498638642"/>
    </vehicle>
    <vehicle id="203" depart="203.00">
        <route edges="-117802267_3 117802267_3 117802267_4 408832713 290155067_1 290155067_2 347989902 347989903_1 347989903_2 347989903_3 274167626_1 274167626_2 274167623 274167625 159497168 159497160_1 159497160_2 178758964_1 178758964_2 178758964_4"/>
    </vehicle>
    <vehicle id="205" depart="205.00">
        <route edges="347989902 347989903_1 347989903_2"/>
    </vehicle>
    <vehicle id="213" depart="213.00">
        <route edges="274167620_3 -274167620_3 -274167620_2 -274167620_1 -117794537"/>
    </vehicle>
    <vehicle id="214" depart="214.00">
        <route edges="290155060 274167626_2 274167623 274167625 159497168 159497160_1 159497160_2 178758964_1 178758964_2 178758964_4 178758964_3 132042051_1 390655650_1"/>
    </vehicle>
    <vehicle id="215" depart="215.00">
        <route edges="-117802268_1 117802267_3 117802267_4 408832713 290155067_1 290155067_2 347989902 347989903_1 347989903_2 347989903_3 274167626_1 274167626_2 274167623 274167625 159497168 159497160_1 159497160_2 178758964_1 178758964_2 178758964_4 178758964_3 132042051_1"/>
    </vehicle>
    <vehicle id="219" depart="219.00">
        <route edges="117802268_1 -117802268_1 117802267_3 408832711"/>
    </vehicle>
    <vehicle id="223" depart="223.00">
        <route edges="274167626_1 274167626_2 274167623 274167625 159497168 159497160_1 159497160_2 178758964_1 178758964_2 178758964_4 178758964_3"/>
    </vehicle>
    <vehicle id="227" depart="227.00">
        <route edges="-274167620_6 -274167620_4 -274167620_3 290155055"/>
    </vehicle>
    <vehicle id="229" depart="229.00">
        <route edges="178758964_4 -178758964_4 -178758964_2 -178758964_1 117802260_1 117802260_2"/>
    </vehicle>
    <vehicle id="231" depart="231.00">
        <route edges="-290155058 117802262_4"/>
    </vehicle>
    <vehicle id="237" depart="237.00">
        <route edges="117802267_2 117802267_3 117802267_4 408832713 290155067_1 290155067_2 347989902 347989903_1 347989903_2 347989903_3 274167626_1 274167626_2 274167623 274167625 159497168 159497160_1 159497160_2 178758964_1 178758964_2 178758964_4 178758964_3 132042051_1 390655650_1 498638642"/>
    </vehicle>
    <vehicle id="239" depart="239.00">
        <route edges="390655650_1"/>
    </vehicle>
    <vehicle id="249" depart="249.00">
        <route edges="117802268_3 117802268_4 159497160_2 178758964_1 -178758964_1"/>
    </vehicle>
    <vehicle id="264" depart="264.00">
        <route edges="-117802260_2 -117802260_1 178758964_1 178758964_2 178758964_4 -178758964_4"/>
    </vehicle>
    <vehicle id="267" depart="267.00">
        <route edges="274167623 274167625 159497168 159497160_1 159497160_2 178758964_1 178758964_2 178758964_4 178758964_3 132042051_1 390655650_1"/>
    </vehicle>
    <vehicle id="276" depart="276.00">
        <route edges="-117802268_1 117802267_3 117802267_4 408832713 290155067_1 290155067_2 347989902 347989903_1 347989903_2 347989903_3 274167626_1 274167626_2 274167623 274167625 159497168 159497160_1 159497160_2 178758964_1 178758964_2 178758964_4 178758964_3 132042051_1 390655650_1"/>
    </vehicle>
    <vehicle id="279" depart="279.00">
        <route edges="290155067_2 -290155067_2 -290155067_1 -408832713 -117802267_4 117802267_4"/>
    </vehicle>
    <vehicle id="282" depart="282.00">
        <route edges="347989903_3 274167626_1 274167626_2 -274167626_2 -274167626_1 -347989903_3 408832717"/>
    </vehicle>
    <vehicle id="283" depart="283.00">
        <route edges="-117802268_1 117802267_3 117802267_4 408832713 290155067_1 290155067_2 347989902 347989903_1 347989903_2 408832717 784784859"/>
    </vehicle>
    <vehicle id="285" depart="285.00">
        <route edges="274167625 159497168 159497160_1 159497160_2 178758964_1 178758964_2 178758964_4 178758964_3 132042051_1 132042051_2"/>
    </vehicle>
    <vehicle id="289" depart="289.00">
        <route edges="117802267_3 117802267_4 408832713 290155067_1 290155067_2 347989902"/>
    </vehicle>
    <vehicle id="290" depart="290.00">
        <route edges="-274167626_2 274167626_2 274167623 274167625 159497168 159497160_1 159497160_2 178758964_1 408832716 408832731_2"/>
    </vehicle>
    <vehicle id="291" depart="291.00">
        <route edges="347989903_2 347989903_3 274167626_1 274167626_2 274167623 274167625 159497168 159497160_1 -117802268_4 -117802268_3"/>
    </vehicle>
    <vehicle id="294" depart="294.00">
        <route edges="117802262_1 117802262_2 -117802262_2"/>
    </vehicle>
    <vehicle id="298" depart="298.00">
        <route edges="274167625 159497168 159497160_1 159497160_2 117802260_1 117802260_2"/>
    </vehicle>
    <vehicle id="306" depart="306.00">
        <route edges="159497168"/>
    </vehicle>
    <vehicle id="309" depart="309.00">
        <route edges="274167625 159497168 159497160_1 159497160_2 117802260_1"/>
    </vehicle>
    <vehicle id="310" depart="310.00">
        <route edges="-274167626_1 -347989903_3 347989903_3 274167626_1 274167626_2 274167623 274167625 159497168 159497160_1 159497160_2 -159497160_2"/>
    </vehicle>
    <vehicle id="311" depart="311.00">
        <route edges="-178758970 -178758964_3 -178758964_4 -178758964_2 -178758964_1 -159497160_2"/>
    </vehicle>
    <vehicle id="316" depart="316.00">
        <route edges="-290155067_1 -408832713 -117802267_4 117802267_4 408832713 290155067_1 290155067_2 347989902 347989903_1 347989903_2 347989903_3 274167626_1 274167626_2 274167623 274167625 159497168 159497160_1 -117802268_4"/>
    </vehicle>
    <vehicle id="318" depart="318.00">
        <route edges="-178758964_3 -178758964_4 -178758964_2 -178758964_1 117802260_1 -117802260_1"/>
    </vehicle>
    <vehicle id="321" depart="321.00">
        <route edges="274167623 274167625 159497168 159497160_1 159497160_2 178758964_1 -178758964_1"/>
    </vehicle>
    <vehicle id="322" depart="322.00">
        <route edges="408832713 290155067_1 290155067_2 347989902 347989903_1 347989903_2 347989903_3 274167626_1 274167626_2 274167623 274167625 159497168 159497160_1 159497160_2 178758964_1 178758964_2"/>
    </vehicle>
    <vehicle id="324" depart="324.00">
        <route edges="117802268_3 117802268_4 159497160_2 178758964_1 178758964_2 178758964_4 178758964_3 132042051_1 132042051_2"/>
    </vehicle>
    <vehicle id="328" depart="328.00">
        <route edges="-117802267_2 290155069 -290155069 117802267_2 117802267_3 117802267_4 408832713 290155067_1 290155067_2 347989902 347989903_1 347989903_2 347989903_3 274167626_1 274167626_2"/>
    </vehicle>
    <vehicle id="333" depart="333.00">
        <route edges="30341017_1 -30341017_1"/>
    </vehicle>
    <vehicle id="335" depart="335.00">
        <route edges="117802267_4 408832713 290155067_1 290155067_2 347989902 347989903_1 347989903_2 347989903_3 274167626_1 274167626_2 274167623 274167625 971866791 971866790 415629014"/>
    </vehicle>
    <vehicle id="338" depart="338.00">
        <route edges="290155059 584334410"/>
    </vehicle>
    <vehicle id="342" depart="342.00">
        <route edges="-117794537 -153550567_2 153550567_2"/>
    </vehicle>
    <vehicle id="345" depart="345.00">
        <route edges="274167625 159497168 159497160_1"/>
    </vehicle>
    <vehicle id="347" depart="347.00">
        <route edges="290155067_2 347989902 347989903_1 347989903_2 347989903_3 274167626_1 274167626_2"/>
    </vehicle>
    <vehicle id="354" depart="354.00">
        <route edges="-290155067_1 -408832713 -117802267_4 117802267_4 408832713 290155067_1 290155067_2 347989902 347989903_1 347989903_2 347989903_3 274167626_1 274167626_2 274167623 274167625 159497168 159497160_1 159497160_2 178758964_1 -178758964_1"/>
    </vehicle>
    <vehicle id="360" depart="360.00">
        <route edges="-117802267_4 117802267_4 408832713 290155067_1 290155067_2 347989902 347989903_1 347989903_2 408832717 784784859"/>
    </vehicle>
    <vehicle id="369" depart="369.00">
        <route edges="-408832713 -117802267_4 -117802267_3 117802267_3"/>
    </vehicle>
    <vehicle id="379" depart="379.00">
        <route edges="-178758964_4 -178758964_2 -178758964_1 -159497160_2 -117802268_4 117802268_4"/>
    </vehicle>
    <vehicle id="380" depart="380.00">
        <route edges="290155060 274167626_2"/>
    </vehicle>
    <vehicle id="381" depart="381.00">
        <route edges="290155060 -274167626_1"/>
    </vehicle>
    <vehicle id="383" depart="383.00">
        <route edges="117802267_3 117802267_4 408832713 290155067_1 290155067_2"/>
    </vehicle>
    <vehicle id="389" depart="389.00">
        <route edges="117802268_3 117802268_4 159497160_2 -159497160_2"/>
    </vehicle>
    <vehicle id="390" depart="390.00">
        <route edges="347989903_2 347989903_3 274167626_1 274167626_2 274167623 274167625 159497168 159497160_1 159497160_2 178758964_1 178758964_2"/>
    </vehicle>
    <vehicle id="391" depart="391.00">
        <route edges="274167626_1 274167626_2 274167623 274167625 159497168 159497160_1 159497160_2 178758964_1 178758964_2 178758964_4 178758964_3"/>
    </vehicle>
    <vehicle id="401" depart="401.00">
        <route edges="159497168 -159497168 971866791"/>
    </vehicle>
    <vehicle id="404" depart="404.00">
        <route edges="153550567_2 117794537 274167620_1 274167620_2"/>
    </vehicle>
    <vehicle id="405" depart="405.00">
        <route edges="117802268_1 -117802268_1 -117802267_2 290155069 -290155069 117802267_2"/>
    </vehicle>
    <vehicle id="415" depart="415.00">
        <route edges="408832716 408832731_2 -117802260_1 178758964_1 178758964_2 178758964_4 178758964_3 132042051_1 132042051_2"/>
    </vehicle>
    <vehicle id="423" depart="423.00">
        <route edges="117802262_2 117802262_4"/>
    </vehicle>
    <vehicle id="424" depart="424.00">
        <route edges="274167626_1 274167626_2 -274167626_2 -274167626_1 -347989903_3 347989903_3"/>
    </vehicle>
    <vehicle id="431" depart="431.00">
        <route edges="274167623 274167625 159497168 159497160_1 159497160_2 178758964_1 178758964_2 178758964_4 178758964_3 132042051_1 390655650_1 498638642"/>
    </vehicle>
    <vehicle id="439" depart="439.00">
        <route edges="-159497168 159497168 159497160_1"/>
    </vehicle>
    <vehicle id="443" depart="443.00">
        <route edges="-178758964_1 178758964_1 178758964_2 178758964_4 178758964_3 132042051_1 132042051_2"/>
    </vehicle>
    <vehicle id="444" depart="444.00">
        <route edges="-408832713 -117802267_4 117802267_4 408832713 290155067_1 290155067_2 347989902 347989903_1 347989903_2 347989903_3 274167626_1 274167626_2 274167623"/>
    </vehicle>
    <vehicle id="446" depart="446.00">
        <route edges="-274167626_1 -347989903_3 347989903_3 274167626_1 274167626_2 274167623 274167625 159497168 159497160_1 159497160_2 178758964_1 178758964_2 408832731_1"/>
    </vehicle>
    <vehicle id="456" depart="456.00">
        <route edges="-290155067_1 -408832713 -117802267_4 408832711"/>
    </vehicle>
    <vehicle id="460" depart="460.00">
        <route edges="274167620_3 274167620_4 274167620_6 408832729"/>
    </vehicle>
    <vehicle id="461" depart="461.00">
        <route edges="178758964_4 178758964_3 132042051_1 390655650_1 498638642"/>
    </vehicle>
    <vehicle id="465" depart="465.00">
        <route edges="-290155067_2 -290155067_1 -408832713 -117802267_4 117802267_4 408832713 290155067_1 290155067_2 347989902 347989903_1 347989903_2"/>
    </vehicle>
    <vehicle id="466" depart="466.00">
        <route edges="-178758964_3 -178758964_4 -178758964_2"/>
    </vehicle>
    <vehicle id="470" depart="470.00">
        <route edges="347989903_1 347989903_2 347989903_3 274167626_1 274167626_2 274167623 274167625 159497168 159497160_1 159497160_2 178758964_1"/>
    </vehicle>
    <vehicle id="472" depart="472.00">
        <route edges="-347989903_3 347989903_3 274167626_1 274167626_2 274167623 274167625 159497168 159497160_1 159497160_2 -159497160_2"/>
    </vehicle>
    <vehicle id="477" depart="477.00">
        <route edges="117802260_1 -117802260_1 178758964_1 178758964_2 178758964_4 390798956"/>
    </vehicle>
    <vehicle id="481" depart="481.00">
        <route edges="347989903_1 347989903_2 347989903_3 274167626_1 274167626_2 274167623 274167625 159497168 159497160_1 -117802268_4 525684686"/>
    </vehicle>
    <vehicle id="482" depart="482.00">
        <route edges="-117802268_1 117802267_3 117802267_4 408832713 290155067_1 290155067_2 347989902 347989903_1 347989903_2 -347989903_2"/>
    </vehicle>
    <vehicle id="484" depart="484.00">
        <route edges="159497160_1 -117802268_4 -117802268_3 525684657"/>
    </vehicle>
    <vehicle id="489" depart="489.00">
        <route edges="-290155069 117802267_2 117802267_3 117802267_4 408832713 290155067_1 290155067_2 347989902 347989903_1 347989903_2 347989903_3 274167626_1 274167626_2 274167623 274167625 159497168 159497160_1 159497160_2 178758964_1 178758964_2"/>
    </vehicle>
    <vehicle id="493" depart="493.00">
        <route edges="430627309 -117802262_1 30341017_2 132042036"/>
    </vehicle>
    <vehicle id="503" depart="503.00">
        <route edges="-178758964_4 -178758964_2 -178758964_1 -159497160_2"/>
    </vehicle>
    <vehicle id="504" depart="504.00">
        <route edges="347989903_3 274167626_1 274167626_2 274167623 274167625 159497168 159497160_1"/>
    </vehicle>
    <vehicle id="507" depart="507.00">
        <route edges="290155067_2 347989902 347989903_1 347989903_2 347989903_3 274167626_1 274167626_2 -274167626_2 -274167626_1 -347989903_3"/>
    </vehicle>
    <vehicle id="511" depart="511.00">
        <route edges="408832713 290155067_1 290155067_2 -290155067_2 -290155067_1 -408832713 -117802267_4 -117802267_3 -117802267_2 290155069 -290155069 117802267_2"/>
    </vehicle>
    <vehicle id="512" depart="512.00">
        <route edges="-159497168 159497168 159497160_1 159497160_2 178758964_1 178758964_2 178758964_4 178758964_3 132042051_1 390655650_1 498638642"/>
    </vehicle>
    <vehicle id="514" depart="514.00">
        <route edges="-159497168 159497168 159497160_1 159497160_2 178758964_1 -178758964_1"/>
    </vehicle>
    <vehicle id="517" depart="517.00">
        <route edges="-117802260_1 178758964_1 178758964_2 178758964_4 390798956"/>
    </vehicle>
    <vehicle id="522" depart="522.00">
        <route edges="290155067_1 290155067_2 347989902 347989903_1 347989903_2 347989903_3 274167626_1 274167626_2 274167623 274167625 159497168 159497160_1 159497160_2 178758964_1 178758964_2 178758964_4"/>
    </vehicle>
    <vehicle id="523" depart="523.00">
        <route edges="-117802268_1 117802267_3 117802267_4 408832713 290155067_1 290155067_2 347989902 347989903_1 347989903_2 347989903_3 274167626_1 274167626_2 274167623 274167625 159497168 159497160_1 159497160_2 178758964_1 178758964_2 178758964_4 178758964_3"/>
    </vehicle>
    <vehicle id="524" depart="524.00">
        <route edges="430627309 117802262_2 117802262_4 -117802262_4"/>
    </vehicle>
    <vehicle id="525" depart="525.00">
        <route edges="290155067_2 347989902 347989903_1 347989903_2 347989903_3 274167626_1 274167626_2 274167623 274167625 971866791 971866790 415629014"/>
    </vehicle>
    <vehicle id="531" depart="531.00">
        <route edges="-117802267_3 117802267_3 117802267_4 408832713 290155067_1 290155067_2 347989902 347989903_1 347989903_2 347989903_3 274167626_1 274167626_2 274167623 274167625"/>
    </vehicle>
    <vehicle id="533" depart="533.00">
        <route edges="274167620_1 274167620_2 274167620_3"/>
    </vehicle>
    <vehicle id="534" depart="534.00">
        <route edges="-347989903_2 290155060 274167626_2 274167623 274167625 971866791"/>
    </vehicle>
    <vehicle id="536" depart="536.00">
        <route edges="178758964_2 -178758964_2 -178758964_1 -159497160_2 -117802268_4"/>
    </vehicle>
    <vehicle id="537" depart="537.00">
        <route edges="274167625 159497168 159497160_1 159497160_2 178758964_1 408832716 408832731_2"/>
    </vehicle>
    <vehicle id="540" depart="540.00">
        <route edges="117802268_1 -117802268_1 117802267_3 117802267_4 408832713 290155067_1 290155067_2 347989902 347989903_1 347989903_2 -347989903_2"/>
    </vehicle>
    <vehicle id="541" depart="541.00">
        <route edges="-347989903_3 347989903_3 274167626_1 274167626_2 274167623 274167625 159497168 159497160_1"/>
    </vehicle>
    <vehicle id="543" depart="543.00">
        <route edges="117802267_2 117802267_3 117802267_4 408832713 290155067_1 290155067_2 347989902 347989903_1 290155060"/>
    </vehicle>
    <vehicle id="546" depart="546.00">
        <route edges="347989903_2 347989903_3 274167626_1 274167626_2 274167623 274167625 159497168 159497160_1 -117802268_4 -117802268_3"/>
    </vehicle>
    <vehicle id="547" depart="547.00">
        <route edges="-117802267_4 117802267_4 408832713 290155067_1 290155067_2 347989902 347989903_1"/>
    </vehicle>
    <vehicle id="550" depart="550.00">
        <route edges="-347989903_2 290155060 274167626_2 274167623 274167625 159497168 159497160_1 159497160_2 -159497160_2"/>
    </vehicle>
    <vehicle id="557" depart="557.00">
        <route edges="-117802268_1 117802267_3 117802267_4 408832713 290155067_1 290155067_2 347989902 347989903_1 347989903_2 347989903_3 274167626_1 274167626_2 274167623 274167625 159497168 159497160_1 159497160_2 178758964_1 178758964_2 408832731_1"/>
    </vehicle>
    <vehicle id="561" depart="561.00">
        <route edges="347989902 347989903_1 347989903_2 347989903_3 274167626_1"/>
    </vehicle>
    <vehicle id="572" depart="572.00">
        <route edges="117802262_1 -117802262_1 30341017_2"/>
    </vehicle>
    <vehicle id="578" depart="578.00">
        <route edges="117802267_4 408832713 290155067_1 290155067_2 347989902 347989903_1 347989903_2 347989903_3 274167626_1 274167626_2 274167623 274167625 159497168 159497160_1 159497160_2 117802260_1"/>
    </vehicle>
    <vehicle id="579" depart="579.00">
        <route edges="290155060 274167626_2 274167623 274167625 159497168 159497160_1 159497160_2 -159497160_2"/>
    </vehicle>
    <vehicle id="589" depart="589.00">
        <route edges="274167625 159497168 159497160_1 159497160_2 178758964_1 178758964_2 178758964_4 178758964_3"/>
    </vehicle>
    <vehicle id="591" depart="591.00">