<?xml version="1.0" encoding="UTF-8"?>

<!-- generated on 2023-11-07 23:21:08 by Eclipse SUMO netedit Version 1.12.0
<configuration xmlns:xsi="http://www.w3.org/2001/XMLSchema-instance" xsi:noNamespaceSchemaLocation="http://sumo.dlr.de/xsd/netconvertConfiguration.xsd">

    <input>
        <sumo-net-file value="/home/test/ros2_ws/src/webots_ros2_suv//worlds/ulstu_net/sumo.net.xml"/>
    </input>

    <output>
        <output-file value="/home/test/ros2_ws/src/webots_ros2_suv//worlds/ulstu_net/sumo.net.xml"/>
    </output>

    <processing>
        <geometry.min-radius.fix.railways value="false"/>
        <geometry.max-grade.fix value="false"/>
        <offset.disable-normalization value="true"/>
        <lefthand value="false"/>
    </processing>

    <junctions>
        <no-turnarounds value="true"/>
        <junctions.corner-detail value="5"/>
        <junctions.limit-turn-speed value="5.5"/>
        <rectangular-lane-cut value="false"/>
    </junctions>

    <pedestrian>
        <walkingareas value="false"/>
    </pedestrian>

    <report>
        <aggregate-warnings value="5"/>
    </report>

</configuration>
-->

<net version="1.9" junctionCornerDetail="5" limitTurnSpeed="5.50" xmlns:xsi="http://www.w3.org/2001/XMLSchema-instance" xsi:noNamespaceSchemaLocation="http://sumo.dlr.de/xsd/net_file.xsd">

    <location netOffset="363.13,723.23" convBoundary="0.00,0.00,697.32,1140.49" origBoundary="-363.13,-723.23,334.19,417.26" projParameter="!"/>

    <edge id=":1326225978_0" function="internal">
        <lane id=":1326225978_0_0" index="0" speed="2.89" length="2.92" width="2.00" shape="116.22,894.66 115.80,893.86 115.82,893.30 116.28,892.98 117.18,892.90"/>
    </edge>
    <edge id=":1326225984_0" function="internal">
        <lane id=":1326225984_0_0" index="0" speed="12.40" length="3.75" width="2.00" shape="430.98,776.36 430.62,777.36 430.68,778.12 430.86,778.91 430.91,780.03"/>
    </edge>
    <edge id=":1326225984_1" function="internal">
        <lane id=":1326225984_1_0" index="0" speed="2.89" length="0.46" width="2.00" shape="428.91,779.85 429.21,779.49"/>
    </edge>
    <edge id=":1326225984_2" function="internal">
        <lane id=":1326225984_2_0" index="0" speed="2.89" length="2.46" width="2.00" shape="429.21,779.49 429.48,779.15 430.00,778.95 430.47,779.24 430.91,780.03"/>
    </edge>
    <edge id=":1326225994_0" function="internal">
        <lane id=":1326225994_0_0" index="0" speed="13.89" length="8.00" width="2.00" shape="255.21,698.13 248.22,694.23"/>
    </edge>
    <edge id=":1326225994_1" function="internal">
        <lane id=":1326225994_1_0" index="0" speed="13.89" length="8.00" width="2.00" shape="249.20,692.49 256.18,696.38"/>
    </edge>
    <edge id=":1326226005_0" function="internal">
        <lane id=":1326226005_0_0" index="0" speed="13.89" length="0.89" width="2.00" shape="227.15,690.37 226.94,690.44 226.75,690.54 226.59,690.69 226.46,690.88"/>
    </edge>
    <edge id=":1326226005_1" function="internal">
        <lane id=":1326226005_1_0" index="0" speed="5.12" length="2.66" width="2.00" shape="224.70,689.94 225.08,689.37 225.55,688.93 226.12,688.60 226.77,688.41"/>
    </edge>
    <edge id=":1326226012_0" function="internal">
        <lane id=":1326226012_0_0" index="0" speed="6.03" length="8.07" width="2.00" shape="155.55,823.34 154.24,825.13 152.67,826.06 150.85,826.14 148.79,825.36"/>
    </edge>
    <edge id=":1326226012_1" function="internal">
        <lane id=":1326226012_1_0" index="0" speed="4.78" length="4.83" width="2.00" shape="149.74,823.60 150.98,824.07 152.07,824.02 153.00,823.46 153.79,822.40"/>
    </edge>
    <edge id=":1326226017_0" function="internal">
        <lane id=":1326226017_0_0" index="0" speed="13.89" length="8.00" width="2.00" shape="290.46,625.52 286.71,632.58"/>
    </edge>
    <edge id=":1326226017_1" function="internal">
        <lane id=":1326226017_1_0" index="0" speed="6.19" length="0.84" width="3.00" shape="290.46,625.52 289.98,626.20"/>
    </edge>
    <edge id=":1326226017_2" function="internal">
        <lane id=":1326226017_2_0" index="0" speed="2.89" length="2.39" width="2.00" shape="290.46,625.52 289.67,625.95 289.11,625.93 288.79,625.48 288.75,625.11"/>
    </edge>
    <edge id=":1326226017_9" function="internal">
        <lane id=":1326226017_9_0" index="0" speed="6.19" length="7.64" width="3.00" shape="289.98,626.20 289.06,627.50 287.42,628.57 285.56,628.75 283.46,628.02"/>
    </edge>
    <edge id=":1326226017_10" function="internal">
        <lane id=":1326226017_10_0" index="0" speed="2.89" length="0.53" width="2.00" shape="288.75,625.11 288.70,624.58"/>
    </edge>
    <edge id=":1326226017_3" function="internal">
        <lane id=":1326226017_3_0" index="0" speed="4.77" length="4.44" width="2.00" shape="284.88,625.38 286.11,625.86 287.16,625.88 288.02,625.46 288.70,624.58"/>
    </edge>
    <edge id=":1326226017_4" function="internal">
        <lane id=":1326226017_4_0" index="0" speed="6.30" length="8.47" width="2.00" shape="284.88,625.38 286.64,626.71 287.54,628.35 287.56,630.31 286.71,632.58"/>
    </edge>
    <edge id=":1326226017_5" function="internal">
        <lane id=":1326226017_5_0" index="0" speed="3.53" length="4.38" width="3.00" shape="284.88,625.38 285.52,626.57 285.49,627.41 284.81,627.89 283.46,628.02"/>
    </edge>
    <edge id=":1326226017_6" function="internal">
        <lane id=":1326226017_6_0" index="0" speed="4.63" length="4.45" width="3.00" shape="284.94,631.65 285.29,630.59 285.16,629.63 284.55,628.78 283.46,628.02"/>
    </edge>
    <edge id=":1326226017_7" function="internal">
        <lane id=":1326226017_7_0" index="0" speed="13.89" length="8.00" width="2.00" shape="284.94,631.65 288.70,624.58"/>
    </edge>
    <edge id=":1326226017_8" function="internal">
        <lane id=":1326226017_8_0" index="0" speed="2.89" length="2.39" width="2.00" shape="284.94,631.65 285.73,631.22 286.29,631.23 286.62,631.69 286.65,632.06"/>
    </edge>
    <edge id=":1326226017_11" function="internal">
        <lane id=":1326226017_11_0" index="0" speed="2.89" length="0.53" width="2.00" shape="286.65,632.06 286.71,632.58"/>
    </edge>
    <edge id=":1326226018_0" function="internal">
        <lane id=":1326226018_0_0" index="0" speed="4.00" length="4.36" width="4.00" shape="161.75,945.45 160.43,944.90 159.48,944.90 158.90,945.48 158.70,946.62"/>
    </edge>
    <edge id=":1326226018_1" function="internal">
        <lane id=":1326226018_1_0" index="0" speed="13.89" length="5.54" width="2.00" shape="161.75,945.45 160.28,944.71 159.25,944.20 158.34,943.55 157.24,942.36"/>
    </edge>
    <edge id=":1326226018_2" function="internal">
        <lane id=":1326226018_2_0" index="0" speed="2.89" length="0.79" width="2.00" shape="161.75,945.45 161.39,944.75"/>
    </edge>
    <edge id=":1326226018_6" function="internal">
        <lane id=":1326226018_6_0" index="0" speed="2.89" length="2.13" width="2.00" shape="161.39,944.75 161.34,944.65 161.37,944.09 161.83,943.78 162.73,943.71"/>
    </edge>
    <edge id=":1326226018_3" function="internal">
        <lane id=":1326226018_3_0" index="0" speed="13.89" length="4.71" width="2.00" shape="158.84,941.16 159.78,942.16 160.57,942.68 161.47,943.08 162.73,943.71"/>
    </edge>
    <edge id=":1326226018_4" function="internal">
        <lane id=":1326226018_4_0" index="0" speed="8.66" length="0.47" width="4.00" shape="158.84,941.16 159.05,941.57"/>
    </edge>
    <edge id=":1326226018_5" function="internal">
        <lane id=":1326226018_5_0" index="0" speed="2.89" length="0.80" width="2.00" shape="158.84,941.16 158.88,941.96"/>
    </edge>
    <edge id=":1326226018_7" function="internal">
        <lane id=":1326226018_7_0" index="0" speed="8.66" length="5.28" width="4.00" shape="159.05,941.57 159.55,942.52 159.43,943.66 158.98,944.91 158.70,946.62"/>
    </edge>
    <edge id=":1326226018_8" function="internal">
        <lane id=":1326226018_8_0" index="0" speed="2.89" length="2.13" width="2.00" shape="158.88,941.96 158.89,942.06 158.64,942.56 158.09,942.66 157.24,942.36"/>
    </edge>
    <edge id=":1452884107_0" function="internal">
        <lane id=":1452884107_0_0" index="0" speed="6.07" length="1.80" width="4.00" shape="551.18,356.70 549.71,355.65"/>
    </edge>
    <edge id=":1452884107_2" function="internal">
        <lane id=":1452884107_2_0" index="0" speed="6.07" length="4.89" width="4.00" shape="549.71,355.65 548.87,354.36 548.63,352.84 549.01,351.08"/>
    </edge>
    <edge id=":1452884107_1" function="internal">
        <lane id=":1452884107_1_0" index="0" speed="13.89" length="8.00" width="4.00" shape="546.29,358.59 549.01,351.08"/>
    </edge>
    <edge id=":1452884154_0" function="internal">
        <lane id=":1452884154_0_0" index="0" speed="5.62" length="6.38" width="4.00" shape="510.06,440.55 511.69,441.19 513.13,441.14 514.35,440.40 515.37,438.97"/>
    </edge>
    <edge id=":1452884154_1" function="internal">
        <lane id=":1452884154_1_0" index="0" speed="13.89" length="7.99" width="4.00" shape="510.06,440.55 517.02,444.48"/>
    </edge>
    <edge id=":1452884155_0" function="internal">
        <lane id=":1452884155_0_0" index="0" speed="5.77" length="7.27" width="4.00" shape="433.29,450.56 434.67,451.67 435.31,453.10 435.21,454.83 434.37,456.87"/>
    </edge>
    <edge id=":1452884155_1" function="internal">
        <lane id=":1452884155_1_0" index="0" speed="2.89" length="2.92" width="2.00" shape="433.29,450.56 433.70,451.36 433.68,451.91 433.22,452.23 432.32,452.31"/>
    </edge>
    <edge id=":1452884157_0" function="internal">
        <lane id=":1452884157_0_0" index="0" speed="2.89" length="2.61" width="2.00" shape="444.92,459.36 444.52,458.55 444.55,458.00 445.01,457.68 445.60,457.64"/>
    </edge>
    <edge id=":1452884157_2" function="internal">
        <lane id=":1452884157_2_0" index="0" speed="2.89" length="0.31" width="2.00" shape="445.60,457.64 445.91,457.62"/>
    </edge>
    <edge id=":1452884157_1" function="internal">
        <lane id=":1452884157_1_0" index="0" speed="5.49" length="5.73" width="2.00" shape="443.81,452.99 443.41,454.27 443.63,455.46 444.47,456.58 445.91,457.62"/>
    </edge>
    <edge id=":1452884163_0" function="internal">
        <lane id=":1452884163_0_0" index="0" speed="13.89" length="8.00" width="4.00" shape="425.13,481.91 418.20,477.91"/>
    </edge>
    <edge id=":1452884163_1" function="internal">
        <lane id=":1452884163_1_0" index="0" speed="5.66" length="1.90" width="4.00" shape="423.59,476.41 422.53,477.81 422.41,477.88"/>
    </edge>
    <edge id=":1452884163_2" function="internal">
        <lane id=":1452884163_2_0" index="0" speed="5.66" length="4.50" width="4.00" shape="422.41,477.88 421.28,478.53 419.84,478.57 418.20,477.91"/>
    </edge>
    <edge id=":1452884319_0" function="internal">
        <lane id=":1452884319_0_0" index="0" speed="13.89" length="8.07" width="4.00" shape="158.56,957.94 158.58,960.33 158.69,961.96 158.87,963.60 159.09,965.98"/>
    </edge>
    <edge id=":1452884319_1" function="internal">
        <lane id=":1452884319_1_0" index="0" speed="11.82" length="8.17" width="4.00" shape="158.56,957.94 158.23,960.21 157.38,961.61 156.12,962.87 154.54,964.74"/>
    </edge>
    <edge id=":1716080380_0" function="internal">
        <lane id=":1716080380_0_0" index="0" speed="5.23" length="5.22" width="2.00" shape="360.37,913.48 359.33,913.19 358.31,913.49 357.32,914.37 356.36,915.83"/>
    </edge>
    <edge id=":1716080380_1" function="internal">
        <lane id=":1716080380_1_0" index="0" speed="13.89" length="7.50" width="2.00" shape="360.37,913.48 358.36,912.56 356.89,912.14 355.41,911.72 353.40,910.80"/>
    </edge>
    <edge id=":1716080380_2" function="internal">
        <lane id=":1716080380_2_0" index="0" speed="4.82" length="4.85" width="2.00" shape="354.60,914.88 355.06,913.64 355.01,912.54 354.46,911.59 353.40,910.80"/>
    </edge>
    <edge id=":1716080380_3" function="internal">
        <lane id=":1716080380_3_0" index="0" speed="2.89" length="2.92" width="2.00" shape="354.60,914.88 355.40,914.46 355.96,914.48 356.28,914.94 356.36,915.83"/>
    </edge>
    <edge id=":1716080380_4" function="internal">
        <lane id=":1716080380_4_0" index="0" speed="6.07" length="8.06" width="2.00" shape="354.36,909.04 356.13,910.37 357.05,911.94 357.13,913.76 356.36,915.83"/>
    </edge>
    <edge id=":1716080380_5" function="internal">
        <lane id=":1716080380_5_0" index="0" speed="2.89" length="0.79" width="2.00" shape="354.36,909.04 354.73,909.75"/>
    </edge>
    <edge id=":1716080380_6" function="internal">
        <lane id=":1716080380_6_0" index="0" speed="2.89" length="2.13" width="2.00" shape="354.73,909.75 354.78,909.84 354.76,910.40 354.30,910.72 353.40,910.80"/>
    </edge>
    <edge id=":2789326868_0" function="internal">
        <lane id=":2789326868_0_0" index="0" speed="4.76" length="4.79" width="2.00" shape="396.05,432.31 394.82,431.84 393.74,431.89 392.81,432.44 392.04,433.50"/>
    </edge>
    <edge id=":2789326868_1" function="internal">
        <lane id=":2789326868_1_0" index="0" speed="13.89" length="7.99" width="2.00" shape="396.05,432.31 389.03,428.48"/>
    </edge>
    <edge id=":2789326868_2" function="internal">
        <lane id=":2789326868_2_0" index="0" speed="2.89" length="2.38" width="2.00" shape="396.05,432.31 395.63,431.51 395.65,430.95 396.11,430.63 396.47,430.60"/>
    </edge>
    <edge id=":2789326868_9" function="internal">
        <lane id=":2789326868_9_0" index="0" speed="2.89" length="0.54" width="2.00" shape="396.47,430.60 397.01,430.55"/>
    </edge>
    <edge id=":2789326868_3" function="internal">
        <lane id=":2789326868_3_0" index="0" speed="13.89" length="8.00" width="2.00" shape="389.99,426.72 397.01,430.55"/>
    </edge>
    <edge id=":2789326868_4" function="internal">
        <lane id=":2789326868_4_0" index="0" speed="6.07" length="0.79" width="2.00" shape="389.99,426.72 390.62,427.19"/>
    </edge>
    <edge id=":2789326868_5" function="internal">
        <lane id=":2789326868_5_0" index="0" speed="2.89" length="2.39" width="2.00" shape="389.99,426.72 390.41,427.52 390.39,428.08 389.93,428.40 389.56,428.43"/>
    </edge>
    <edge id=":2789326868_10" function="internal">
        <lane id=":2789326868_10_0" index="0" speed="6.07" length="7.28" width="2.00" shape="390.62,427.19 391.76,428.04 392.69,429.61 392.78,431.43 392.04,433.50"/>
    </edge>
    <edge id=":2789326868_11" function="internal">
        <lane id=":2789326868_11_0" index="0" speed="2.89" length="0.53" width="2.00" shape="389.56,428.43 389.03,428.48"/>
    </edge>
    <edge id=":2789326868_6" function="internal">
        <lane id=":2789326868_6_0" index="0" speed="4.83" length="4.86" width="2.00" shape="390.27,432.57 390.72,431.32 390.66,430.22 390.10,429.27 389.03,428.48"/>
    </edge>
    <edge id=":2789326868_7" function="internal">
        <lane id=":2789326868_7_0" index="0" speed="6.02" length="8.05" width="2.00" shape="390.27,432.57 391.57,430.78 393.13,429.85 394.94,429.77 397.01,430.55"/>
    </edge>
    <edge id=":2789326868_8" function="internal">
        <lane id=":2789326868_8_0" index="0" speed="2.89" length="2.92" width="2.00" shape="390.27,432.57 391.06,432.14 391.62,432.15 391.94,432.61 392.04,433.50"/>
    </edge>
    <edge id=":2789326897_0" function="internal">
        <lane id=":2789326897_0_0" index="0" speed="13.89" length="0.71" width="2.00" shape="237.94,688.51 237.76,688.41 237.62,688.37 237.47,688.37 237.27,688.40"/>
    </edge>
    <edge id=":2789326897_1" function="internal">
        <lane id=":2789326897_1_0" index="0" speed="5.43" length="2.13" width="2.00" shape="236.88,686.44 237.50,686.34 237.94,686.34 238.36,686.47 238.91,686.76"/>
    </edge>
    <edge id=":2789326916_0" function="internal">
        <lane id=":2789326916_0_0" index="0" speed="6.56" length="8.86" width="2.00" shape="426.43,787.50 428.17,788.86 429.02,790.59 428.98,792.68 428.04,795.14"/>
    </edge>
    <edge id=":2789326916_1" function="internal">
        <lane id=":2789326916_1_0" index="0" speed="4.47" length="4.07" width="4.00" shape="426.26,794.20 426.50,793.35 426.29,792.53 425.64,791.76 424.53,791.02"/>
    </edge>
    <edge id=":2789326927_0" function="internal">
        <lane id=":2789326927_0_0" index="0" speed="13.89" length="3.21" width="4.00" shape="387.53,872.05 386.97,872.79 386.39,873.15 385.81,873.50 385.25,874.24"/>
    </edge>
    <edge id=":2789326927_1" function="internal">
        <lane id=":2789326927_1_0" index="0" speed="2.89" length="2.92" width="2.00" shape="387.53,872.05 386.74,872.48 386.18,872.47 385.86,872.02 385.76,871.12"/>
    </edge>
    <edge id=":2789326930_0" function="internal">
        <lane id=":2789326930_0_0" index="0" speed="13.89" length="0.10" width="4.00" shape="384.06,876.49 384.06,876.49"/>
    </edge>
    <edge id=":2789326934_0" function="internal">
        <lane id=":2789326934_0_0" index="0" speed="5.72" length="6.47" width="4.00" shape="383.44,877.66 382.84,879.32 382.91,880.78 383.67,882.04 385.09,883.09"/>
    </edge>
    <edge id=":2789326934_1" function="internal">
        <lane id=":2789326934_1_0" index="0" speed="13.89" length="8.08" width="2.00" shape="383.44,877.66 382.46,879.84 382.01,881.43 381.56,883.02 380.58,885.20"/>
    </edge>
    <edge id=":2789326934_2" function="internal">
        <lane id=":2789326934_2_0" index="0" speed="5.76" length="0.51" width="4.00" shape="378.82,884.26 379.13,883.86"/>
    </edge>
    <edge id=":2789326934_3" function="internal">
        <lane id=":2789326934_3_0" index="0" speed="2.89" length="0.79" width="2.00" shape="378.82,884.26 379.51,883.88"/>
    </edge>
    <edge id=":2789326934_4" function="internal">
        <lane id=":2789326934_4_0" index="0" speed="5.76" length="6.76" width="4.00" shape="379.13,883.86 379.91,882.86 381.32,882.20 383.05,882.27 385.09,883.09"/>
    </edge>
    <edge id=":2789326934_5" function="internal">
        <lane id=":2789326934_5_0" index="0" speed="2.89" length="2.13" width="2.00" shape="379.51,883.88 379.61,883.83 380.17,883.85 380.49,884.30 380.58,885.20"/>
    </edge>
    <edge id=":2789326942_0" function="internal">
        <lane id=":2789326942_0_0" index="0" speed="5.57" length="6.82" width="4.00" shape="366.34,912.14 365.27,913.57 363.94,914.29 362.37,914.29 360.55,913.58"/>
    </edge>
    <edge id=":2789326942_1" function="internal">
        <lane id=":2789326942_1_0" index="0" speed="2.89" length="2.92" width="2.00" shape="366.34,912.14 365.54,912.57 364.98,912.55 364.66,912.10 364.57,911.20"/>
    </edge>
    <edge id=":2936890068_0" function="internal">
        <lane id=":2936890068_0_0" index="0" speed="4.75" length="4.70" width="2.00" shape="306.51,601.69 305.27,601.23 304.19,601.26 303.28,601.78 302.53,602.79"/>
    </edge>
    <edge id=":2936890068_1" function="internal">
        <lane id=":2936890068_1_0" index="0" speed="6.09" length="8.19" width="2.00" shape="306.51,601.69 304.73,600.38 303.81,598.80 303.74,596.93 304.53,594.79"/>
    </edge>
    <edge id=":2936890068_2" function="internal">
        <lane id=":2936890068_2_0" index="0" speed="2.89" length="2.78" width="2.00" shape="306.51,601.69 306.08,600.90 306.10,600.34 306.55,600.02 307.30,599.94"/>
    </edge>
    <edge id=":2936890068_9" function="internal">
        <lane id=":2936890068_9_0" index="0" speed="2.89" length="0.15" width="2.00" shape="307.30,599.94 307.45,599.93"/>
    </edge>
    <edge id=":2936890068_3" function="internal">
        <lane id=":2936890068_3_0" index="0" speed="4.86" length="4.96" width="2.00" shape="306.29,595.73 305.81,597.04 305.84,598.18 306.39,599.14 307.45,599.93"/>
    </edge>
    <edge id=":2936890068_4" function="internal">
        <lane id=":2936890068_4_0" index="0" speed="13.89" length="7.99" width="2.00" shape="306.29,595.73 302.53,602.79"/>
    </edge>
    <edge id=":2936890068_5" function="internal">
        <lane id=":2936890068_5_0" index="0" speed="2.89" length="2.39" width="2.00" shape="306.29,595.73 305.50,596.16 304.94,596.14 304.62,595.69 304.58,595.32"/>
    </edge>
    <edge id=":2936890068_10" function="internal">
        <lane id=":2936890068_10_0" index="0" speed="2.89" length="0.53" width="2.00" shape="304.58,595.32 304.53,594.79"/>
    </edge>
    <edge id=":2936890068_6" function="internal">
        <lane id=":2936890068_6_0" index="0" speed="13.89" length="7.99" width="2.00" shape="300.77,601.85 304.53,594.79"/>
    </edge>
    <edge id=":2936890068_7" function="internal">
        <lane id=":2936890068_7_0" index="0" speed="6.01" length="0.75" width="2.00" shape="300.77,601.85 301.22,601.24"/>
    </edge>
    <edge id=":2936890068_8" function="internal">
        <lane id=":2936890068_8_0" index="0" speed="2.89" length="2.39" width="2.00" shape="300.77,601.85 301.56,601.42 302.12,601.44 302.44,601.89 302.48,602.26"/>
    </edge>
    <edge id=":2936890068_11" function="internal">
        <lane id=":2936890068_11_0" index="0" speed="6.01" length="7.17" width="2.00" shape="301.22,601.24 302.04,600.13 303.57,599.24 305.38,599.17 307.45,599.93"/>
    </edge>
    <edge id=":2936890068_12" function="internal">
        <lane id=":2936890068_12_0" index="0" speed="2.89" length="0.53" width="2.00" shape="302.48,602.26 302.53,602.79"/>
    </edge>
    <edge id=":2936890074_0" function="internal">
        <lane id=":2936890074_0_0" index="0" speed="13.89" length="8.00" width="2.00" shape="515.71,619.29 511.96,626.35"/>
    </edge>
    <edge id=":2936890074_1" function="internal">
        <lane id=":2936890074_1_0" index="0" speed="5.79" length="0.65" width="4.00" shape="515.71,619.29 515.31,619.80"/>
    </edge>
    <edge id=":2936890074_2" function="internal">
        <lane id=":2936890074_2_0" index="0" speed="2.89" length="2.39" width="2.00" shape="515.71,619.29 514.92,619.72 514.36,619.70 514.04,619.25 514.00,618.88"/>
    </edge>
    <edge id=":2936890074_6" function="internal">
        <lane id=":2936890074_6_0" index="0" speed="5.79" length="6.62" width="4.00" shape="515.31,619.80 514.62,620.68 513.21,621.35 511.47,621.29 509.42,620.50"/>
    </edge>
    <edge id=":2936890074_7" function="internal">
        <lane id=":2936890074_7_0" index="0" speed="2.89" length="0.53" width="2.00" shape="514.00,618.88 513.95,618.35"/>
    </edge>
    <edge id=":2936890074_3" function="internal">
        <lane id=":2936890074_3_0" index="0" speed="5.12" length="5.64" width="4.00" shape="510.20,625.41 510.86,623.78 510.94,622.42 510.46,621.33 509.42,620.50"/>
    </edge>
    <edge id=":2936890074_4" function="internal">
        <lane id=":2936890074_4_0" index="0" speed="13.89" length="7.99" width="2.00" shape="510.20,625.41 513.95,618.35"/>
    </edge>
    <edge id=":2936890074_5" function="internal">
        <lane id=":2936890074_5_0" index="0" speed="2.89" length="2.38" width="2.00" shape="510.20,625.41 510.99,624.98 511.55,625.00 511.87,625.45 511.91,625.82"/>
    </edge>
    <edge id=":2936890074_8" function="internal">
        <lane id=":2936890074_8_0" index="0" speed="2.89" length="0.54" width="2.00" shape="511.91,625.82 511.96,626.35"/>
    </edge>
    <edge id=":2936890077_0" function="internal">
        <lane id=":2936890077_0_0" index="0" speed="5.74" length="6.47" width="4.00" shape="479.24,639.24 477.58,638.63 476.11,638.69 474.85,639.43 473.78,640.84"/>
    </edge>
    <edge id=":2936890077_1" function="internal">
        <lane id=":2936890077_1_0" index="0" speed="13.89" length="8.00" width="4.00" shape="477.63,633.83 473.78,640.84"/>
    </edge>
    <edge id=":2936890079_0" function="internal">
        <lane id=":2936890079_0_0" index="0" speed="13.89" length="7.99" width="2.00" shape="501.18,646.50 497.42,653.56"/>
    </edge>
    <edge id=":2936890079_1" function="internal">
        <lane id=":2936890079_1_0" index="0" speed="5.77" length="0.64" width="4.00" shape="501.18,646.50 500.78,647.01"/>
    </edge>
    <edge id=":2936890079_2" function="internal">
        <lane id=":2936890079_2_0" index="0" speed="2.89" length="2.38" width="2.00" shape="501.18,646.50 500.39,646.93 499.83,646.91 499.51,646.46 499.47,646.09"/>
    </edge>
    <edge id=":2936890079_6" function="internal">
        <lane id=":2936890079_6_0" index="0" speed="5.77" length="6.62" width="4.00" shape="500.78,647.01 500.08,647.90 498.67,648.56 496.94,648.48 494.89,647.66"/>
    </edge>
    <edge id=":2936890079_7" function="internal">
        <lane id=":2936890079_7_0" index="0" speed="2.89" length="0.54" width="2.00" shape="499.47,646.09 499.42,645.56"/>
    </edge>
    <edge id=":2936890079_3" function="internal">
        <lane id=":2936890079_3_0" index="0" speed="5.17" length="5.68" width="4.00" shape="495.66,652.62 496.31,650.98 496.41,649.61 495.93,648.50 494.89,647.66"/>
    </edge>
    <edge id=":2936890079_4" function="internal">
        <lane id=":2936890079_4_0" index="0" speed="13.89" length="8.00" width="2.00" shape="495.66,652.62 499.42,645.56"/>
    </edge>
    <edge id=":2936890079_5" function="internal">
        <lane id=":2936890079_5_0" index="0" speed="2.89" length="2.39" width="2.00" shape="495.66,652.62 496.45,652.19 497.01,652.21 497.33,652.66 497.37,653.03"/>
    </edge>
    <edge id=":2936890079_8" function="internal">
        <lane id=":2936890079_8_0" index="0" speed="2.89" length="0.53" width="2.00" shape="497.37,653.03 497.42,653.56"/>
    </edge>
    <edge id=":2936890085_0" function="internal">
        <lane id=":2936890085_0_0" index="0" speed="13.89" length="7.99" width="4.00" shape="453.69,685.30 446.64,681.53"/>
    </edge>
    <edge id=":2936890085_1" function="internal">
        <lane id=":2936890085_1_0" index="0" speed="5.74" length="1.77" width="4.00" shape="452.10,679.94 451.03,681.35"/>
    </edge>
    <edge id=":2936890085_2" function="internal">
        <lane id=":2936890085_2_0" index="0" speed="5.74" length="4.70" width="4.00" shape="451.03,681.35 449.77,682.08 448.30,682.14 446.64,681.53"/>
    </edge>
    <edge id=":2936890088_0" function="internal">
        <lane id=":2936890088_0_0" index="0" speed="13.89" length="7.99" width="2.00" shape="476.52,692.92 472.76,699.98"/>
    </edge>
    <edge id=":2936890088_1" function="internal">
        <lane id=":2936890088_1_0" index="0" speed="5.77" length="0.65" width="4.00" shape="476.52,692.92 476.12,693.43"/>
    </edge>
    <edge id=":2936890088_2" function="internal">
        <lane id=":2936890088_2_0" index="0" speed="2.89" length="2.39" width="2.00" shape="476.52,692.92 475.73,693.35 475.17,693.33 474.85,692.88 474.81,692.51"/>
    </edge>
    <edge id=":2936890088_6" function="internal">
        <lane id=":2936890088_6_0" index="0" speed="5.77" length="6.62" width="4.00" shape="476.12,693.43 475.43,694.32 474.01,694.98 472.28,694.91 470.23,694.11"/>
    </edge>
    <edge id=":2936890088_7" function="internal">
        <lane id=":2936890088_7_0" index="0" speed="2.89" length="0.53" width="2.00" shape="474.81,692.51 474.76,691.98"/>
    </edge>
    <edge id=":2936890088_3" function="internal">
        <lane id=":2936890088_3_0" index="0" speed="5.15" length="5.66" width="4.00" shape="471.00,699.04 471.65,697.41 471.75,696.04 471.27,694.94 470.23,694.11"/>
    </edge>
    <edge id=":2936890088_4" function="internal">
        <lane id=":2936890088_4_0" index="0" speed="13.89" length="7.99" width="2.00" shape="471.00,699.04 474.76,691.98"/>
    </edge>
    <edge id=":2936890088_5" function="internal">
        <lane id=":2936890088_5_0" index="0" speed="2.89" length="2.39" width="2.00" shape="471.00,699.04 471.79,698.61 472.35,698.63 472.67,699.08 472.71,699.45"/>
    </edge>
    <edge id=":2936890088_8" function="internal">
        <lane id=":2936890088_8_0" index="0" speed="2.89" length="0.53" width="2.00" shape="472.71,699.45 472.76,699.98"/>
    </edge>
    <edge id=":2936890092_0" function="internal">
        <lane id=":2936890092_0_0" index="0" speed="4.76" length="4.78" width="2.00" shape="166.85,808.54 165.63,808.08 164.56,808.13 163.63,808.69 162.85,809.75"/>
    </edge>
    <edge id=":2936890092_1" function="internal">
        <lane id=":2936890092_1_0" index="0" speed="6.08" length="8.07" width="2.00" shape="166.85,808.54 165.09,807.21 164.17,805.64 164.08,803.81 164.84,801.74"/>
    </edge>
    <edge id=":2936890092_2" function="internal">
        <lane id=":2936890092_2_0" index="0" speed="2.89" length="2.92" width="2.00" shape="166.85,808.54 166.44,807.74 166.46,807.19 166.92,806.87 167.82,806.79"/>
    </edge>
    <edge id=":2936890092_3" function="internal">
        <lane id=":2936890092_3_0" index="0" speed="4.84" length="4.87" width="2.00" shape="166.60,802.68 166.14,803.94 166.20,805.04 166.75,805.99 167.82,806.79"/>
    </edge>
    <edge id=":2936890092_4" function="internal">
        <lane id=":2936890092_4_0" index="0" speed="13.89" length="8.00" width="2.00" shape="166.60,802.68 162.85,809.75"/>
    </edge>
    <edge id=":2936890092_5" function="internal">
        <lane id=":2936890092_5_0" index="0" speed="2.89" length="2.38" width="2.00" shape="166.60,802.68 165.81,803.11 165.25,803.09 164.92,802.64 164.89,802.28"/>
    </edge>
    <edge id=":2936890092_9" function="internal">
        <lane id=":2936890092_9_0" index="0" speed="2.89" length="0.54" width="2.00" shape="164.89,802.28 164.84,801.74"/>
    </edge>
    <edge id=":2936890092_6" function="internal">
        <lane id=":2936890092_6_0" index="0" speed="13.89" length="8.00" width="2.00" shape="161.09,808.81 164.84,801.74"/>
    </edge>
    <edge id=":2936890092_7" function="internal">
        <lane id=":2936890092_7_0" index="0" speed="6.02" length="0.75" width="2.00" shape="161.09,808.81 161.54,808.20"/>
    </edge>
    <edge id=":2936890092_8" function="internal">
        <lane id=":2936890092_8_0" index="0" speed="2.89" length="0.79" width="2.00" shape="161.09,808.81 161.79,808.43"/>
    </edge>
    <edge id=":2936890092_10" function="internal">