<?xml version='1.0' encoding='UTF-8'?>
<edges>
  <edge id="117794537" from="3610689518" to="685074815" numLanes="1" width="2.0" shape="199.390577,-194.088847 195.729068,-187.102404 "/>
  <edge id="-117794537" to="3610689518" from="685074815" numLanes="1" width="2.0" shape="195.729068,-187.102404 199.390577,-194.088847 "/>
  <edge id="117802263" from="Custom58" to="1326226017" numLanes="1" width="3.0" shape="-280.308868,-204.167592 -270.891109,-198.836552 -263.341017,-194.739371 -239.750101,-182.170785 -207.039262,-164.749957 -78.965117,-96.527685 "/>
  <edge id="-117802263" to="Custom58" from="1326226017" numLanes="1" width="3.0" shape="-78.965117,-96.527685 -207.039262,-164.749957 -239.750101,-182.170785 -263.341017,-194.739371 -270.891109,-198.836552 -280.308868,-204.167592 "/>
  <edge id="132042018" from="5113434415" to="1452884157" numLanes="1" width="4.0" shape="97.686255,-305.487855 82.332231,-277.664021 82.315098,-277.632300 78.906227,-271.182743 "/>
  <edge id="132042036" from="1452884155" to="1452884163" numLanes="1" width="4.0" shape="69.487643,-267.330184 60.657787,-251.320953 58.709943,-247.785416 "/>
  <edge id="159497168" from="2789326934" to="2789326942" numLanes="1" width="2.0" shape="16.567324,161.501435 0.440193,192.002403 "/>
  <edge id="-159497168" to="2789326934" from="2789326942" numLanes="1" width="2.0" shape="0.440193,192.002403 16.567324,161.501435 "/>
  <edge id="178758970" from="1326226018" to="1326225978" numLanes="1" width="2.0" shape="-205.119655,218.501341 -242.802312,172.541523 -246.428603,170.548670 "/>
  <edge id="-178758970" to="1326226018" from="1326225978" numLanes="1" width="2.0" shape="-246.428603,170.548670 -242.802312,172.541523 -205.119655,218.501341 "/>
  <edge id="274167623" from="2789326927" to="2789326930" numLanes="1" width="4.0" shape="21.046217,148.749016 19.161488,152.316262 "/>
  <edge id="274167624" from="1326225984" to="3613317452" numLanes="1" width="2.0" shape="66.950914,54.798751 66.250914,62.698751 "/>
  <edge id="-274167624" to="1326225984" from="3613317452" numLanes="1" width="2.0" shape="66.250914,62.698751 66.950914,54.798751 "/>
  <edge id="274167625" from="2789326930" to="2789326934" numLanes="1" width="4.0" shape="19.161770,152.315729 18.538614,153.494322 "/>
  <edge id="290155055" from="2936890079" to="2936890077" numLanes="1" width="4.0" shape="132.710984,-77.328613 117.058139,-85.751440 "/>
  <edge id="290155058" from="2936890068" to="Custom59" numLanes="1" width="2.0" shape="-56.153290,-122.417126 -49.739724,-119.023315 -12.552787,-98.592650 23.164165,-78.842369 "/>
  <edge id="-290155058" to="2936890068" from="Custom59" numLanes="1" width="2.0" shape="23.164165,-78.842369 -12.552787,-98.592650 -49.739724,-119.023315 -56.153290,-122.417126 "/>
  <edge id="290155059" from="2936890074" to="2936890077" numLanes="1" width="4.0" shape="147.207392,-104.498515 130.703673,-113.106925 130.509509,-113.195366 130.307028,-113.262621 130.098535,-113.307922 127.746597,-113.688906 127.544556,-113.711171 127.341299,-113.712813 127.138924,-113.693816 126.939524,-113.654376 126.745156,-113.594900 126.557829,-113.516003 126.379477,-113.418499 126.211943,-113.303397 126.056957,-113.171884 124.320948,-111.540005 124.173507,-111.385788 124.043333,-111.216742 123.931908,-111.034792 112.737489,-90.353107 "/>
  <edge id="290155060" from="5113434585" to="5113434591" numLanes="1" width="4.0" shape="-39.112725,16.642116 -44.290492,26.094577 -73.358997,79.143111 -73.443155,79.315914 -73.510336,79.495998 -73.559921,79.681699 -73.591450,79.871302 -73.604634,80.063057 -73.599349,80.255191 -73.575646,80.445931 -73.533742,80.633514 -73.474026,80.816209 -73.397048,80.992328 -71.575710,84.667276 -71.474684,84.847155 -71.355666,85.015669 -71.219921,85.171026 -71.068895,85.311573 -70.904193,85.435814 -70.727568,85.542427 25.074620,136.823539 "/>
  <edge id="290155069" from="1326226012" to="Custom60" numLanes="1" width="2.0" shape="-213.868486,101.250023 -214.689926,100.803611 -252.159193,81.342986 -276.080224,68.786783 -294.517617,56.728869 -307.161357,46.683623 -346.607419,-4.090680 -349.466016,-10.110620 -353.229804,-18.079570 -356.537351,-26.377331 -363.133209,-53.142848 "/>
  <edge id="-290155069" to="1326226012" from="Custom60" numLanes="1" width="2.0" shape="-363.133209,-53.142848 -356.537351,-26.377331 -353.229804,-18.079570 -349.466016,-10.110620 -346.607419,-4.090680 -307.161357,46.683623 -294.517617,56.728869 -276.080224,68.786783 -252.159193,81.342986 -214.689926,100.803611 -213.868486,101.250023 "/>
  <edge id="347989902" from="3542137755" to="3542137756" numLanes="1" width="4.0" shape="-49.155856,8.792848 -46.325302,10.380958 "/>
  <edge id="390798956" from="3939323017" to="Custom61" numLanes="1" width="4.0" shape="-133.715202,263.478134 -154.964806,304.314809 "/>
  <edge id="408832711" from="4107392362" to="Custom62" numLanes="1" width="4.0" shape="-173.578068,41.492781 -165.858841,48.872023 -165.846617,48.883611 -149.020390,64.699694 "/>
  <edge id="408832713" from="1326226005" to="2789326897" numLanes="1" width="2.0" shape="-137.105931,-33.661917 -125.342521,-35.947069 "/>
  <edge id="-408832713" to="1326226005" from="2789326897" numLanes="1" width="2.0" shape="-125.342521,-35.947069 -137.105931,-33.661917 "/>
  <edge id="408832716" from="4107392382" to="4107392385" numLanes="1" width="4.0" shape="-93.999093,285.113791 -114.487590,325.573278 "/>
  <edge id="408832717" from="4107392360" to="7331748984" numLanes="1" width="4.0" shape="-4.031384,26.463644 1.990933,26.850822 "/>
  <edge id="408832729" from="4107392366" to="4107392354" numLanes="1" width="4.0" shape="70.669551,42.254405 60.401658,27.190652 60.897064,26.243125 76.470232,-3.508360 77.170398,-4.177521 78.119741,-3.985806 88.883139,2.249674 89.976505,2.882998 "/>
  <edge id="415629014" from="8995018952" to="Custom63" numLanes="1" width="4.0" shape="37.631819,170.325061 49.082574,176.398562 49.803183,177.154865 49.629365,178.184943 26.581023,221.494454 "/>
  <edge id="416029661" from="3610689518" to="Custom64" numLanes="1" width="4.0" shape="204.890498,-200.225546 208.652426,-207.305063 "/>
  <edge id="430627309" from="Custom65" to="4298918943" numLanes="1" width="4.0" shape="-85.469417,-197.830825 -38.629926,-172.464330 "/>
  <edge id="498638642" from="4900190160" to="Custom66" numLanes="1" width="4.0" shape="-205.313759,280.138520 -215.474801,282.225414 -226.310258,276.770169 "/>
  <edge id="525674102" from="5113434588" to="Custom67" numLanes="1" width="4.0" shape="-105.038331,-30.561649 -62.188805,-6.630557 -45.705653,2.701926 "/>
  <edge id="525684657" from="5113525260" to="Custom68" numLanes="1" width="4.0" shape="-109.079848,127.367335 -95.989704,102.431045 "/>
  <edge id="525684685" from="5113526106" to="Custom69" numLanes="1" width="4.0" shape="-122.561392,129.173693 -134.107335,150.921129 "/>
  <edge id="525684686" from="5113526108" to="Custom70" numLanes="1" width="4.0" shape="-39.524860,165.510141 -25.179079,138.761059 "/>
  <edge id="525684692" from="Custom71" to="Custom72" numLanes="1" width="4.0" shape="-42.915627,4.316301 -32.150747,10.377549 "/>
  <edge id="584334410" from="2936890077" to="2936890085" numLanes="1" width="4.0" shape="108.898969,-83.357623 87.217392,-44.263805 "/>
  <edge id="784784859" from="7331748984" to="Custom73" numLanes="1" width="4.0" shape="3.871982,25.818233 41.389456,-42.445874 "/>
  <edge id="845484993" from="3748915811" to="4169020616" numLanes="1" width="4.0" shape="201.391282,-254.344365 178.024433,-267.494700 "/>
  <edge id="845484994" from="3748915811" to="Custom74" numLanes="1" width="4.0" shape="199.403224,-250.873529 216.221297,-241.070473 "/>
  <edge id="921953369" from="8559297054" to="Custom75" numLanes="1" width="4.0" shape="-213.155756,-267.960675 -199.446241,-292.677356 "/>
  <edge id="971866790" from="8995018953" to="8995018952" numLanes="1" width="4.0" shape="34.121688,168.645803 37.705060,170.362004 "/>
  <edge id="971866791" from="2789326934" to="8995018953" numLanes="1" width="4.0" shape="21.016546,161.618530 34.040202,168.604462 "/>
  <edge id="30341017_1" from="Custom76" to="2789326868" numLanes="1" width="2.0" shape="-61.623491,-343.286423 23.999637,-296.915981 26.372099,-295.630934 "/>
  <edge id="-30341017_1" to="Custom76" from="2789326868" numLanes="1" width="2.0" shape="26.372099,-295.630934 23.999637,-296.915981 -61.623491,-343.286423 "/>
  <edge id="30341017_2" from="2789326868" to="1452884155" numLanes="1" width="2.0" shape="33.392300,-291.794802 69.667756,-271.797879 "/>
  <edge id="-30341017_2" to="2789326868" from="1452884155" numLanes="1" width="2.0" shape="69.667756,-271.797879 33.392300,-291.794802 "/>
  <edge id="117802260_1" from="685074818" to="4107392386" numLanes="1" width="2.0" shape="-65.987851,300.118379 -87.233565,339.459409 -87.412500,339.790533 "/>
  <edge id="-117802260_1" to="685074818" from="4107392386" numLanes="1" width="2.0" shape="-87.412500,339.790533 -87.233565,339.459409 -65.987851,300.118379 "/>
  <edge id="117802260_2" from="4107392386" to="Custom77" numLanes="1" width="2.0" shape="-91.210293,346.831607 -124.716471,408.859709 -129.251768,417.259104 "/>
  <edge id="-117802260_2" to="4107392386" from="Custom77" numLanes="1" width="2.0" shape="-129.251768,417.259104 -124.716471,408.859709 -91.210293,346.831607 "/>
  <edge id="117802262_1" from="2789326868" to="4298918943" numLanes="1" width="2.0" shape="28.016367,-290.191419 25.699064,-285.818396 16.133179,-267.754194 -32.295341,-175.856840 "/>
  <edge id="-117802262_1" to="2789326868" from="4298918943" numLanes="1" width="2.0" shape="-32.295341,-175.856840 16.133179,-267.754194 25.699064,-285.818396 28.016367,-290.191419 "/>
  <edge id="117802267_2" from="1326226012" to="2936890092" numLanes="1" width="2.0" shape="-208.460930,99.636298 -201.162350,86.050563 "/>
  <edge id="-117802267_2" to="1326226012" from="2936890092" numLanes="1" width="2.0" shape="-201.162350,86.050563 -208.460930,99.636298 "/>
  <edge id="117802268_1" from="2936890092" to="5113526106" numLanes="1" width="2.0" shape="-195.795226,84.442730 -186.804432,89.399369 -122.427525,124.657160 "/>
  <edge id="-117802268_1" to="2936890092" from="5113526106" numLanes="1" width="2.0" shape="-122.427525,124.657160 -186.804432,89.399369 -195.795226,84.442730 "/>
  <edge id="132042008_1" from="Custom78" to="1452884163" numLanes="1" width="4.0" shape="79.093495,-233.743591 62.995486,-243.046979 "/>
  <edge id="132042008_2" from="1452884163" to="Custom79" numLanes="1" width="4.0" shape="56.064157,-247.046750 55.263352,-247.508168 42.225928,-255.054896 "/>
  <edge id="132042023_1" from="Custom80" to="5113434415" numLanes="1" width="4.0" shape="42.909884,-338.478219 75.229455,-320.372589 96.902710,-308.233446 "/>
  <edge id="153550567_2" from="1452884157" to="3610689518" numLanes="1" width="2.0" shape="82.283066,-264.735626 124.021513,-241.019295 133.834868,-235.535019 197.760716,-199.592174 "/>
  <edge id="-153550567_2" to="1452884157" from="3610689518" numLanes="1" width="2.0" shape="197.760716,-199.592174 133.834868,-235.535019 124.021513,-241.019295 82.283066,-264.735626 "/>
  <edge id="132042051_1" from="1326226018" to="1452884319" numLanes="1" width="4.0" shape="-206.432543,223.375082 -206.574731,234.677677 "/>
  <edge id="132042051_2" from="1452884319" to="Custom81" numLanes="1" width="4.0" shape="-210.233604,240.367187 -236.164456,277.538883 -236.251553,277.675167 -236.327354,277.818043 -251.980045,310.443820 -252.042205,310.587558 -252.092928,310.735719 -254.020304,317.178361 "/>
  <edge id="159497160_1" from="2789326942" to="1716080380" numLanes="1" width="4.0" shape="1.401089,190.248356 -1.280105,188.779554 "/>
  <edge id="159497160_2" from="1716080380" to="685074818" numLanes="1" width="2.0" shape="-7.650909,192.130773 -23.022316,220.572762 -37.548978,247.464322 -62.186244,293.079360 "/>
  <edge id="-159497160_2" to="1716080380" from="685074818" numLanes="1" width="2.0" shape="-62.186244,293.079360 -37.548978,247.464322 -23.022316,220.572762 -7.650909,192.130773 "/>
  <edge id="178758964_1" from="685074818" to="4107392382" numLanes="1" width="2.0" shape="-67.610294,294.704763 -86.884590,284.342854 "/>
  <edge id="-178758964_1" to="685074818" from="4107392382" numLanes="1" width="2.0" shape="-86.884590,284.342854 -67.610294,294.704763 "/>
  <edge id="274167620_1" from="685074815" to="2936890074" numLanes="1" width="2.0" shape="195.729068,-187.102404 194.651075,-185.815027 193.582493,-183.570109 151.699664,-104.410972 "/>
  <edge id="-274167620_1" to="685074815" from="2936890074" numLanes="1" width="2.0" shape="151.699664,-104.410972 193.582493,-183.570109 194.651075,-185.815027 195.729068,-187.102404 "/>
  <edge id="274167626_1" from="2789326916" to="5113434591" numLanes="1" width="2.0" shape="64.018906,71.443530 31.416502,133.412771 "/>
  <edge id="-274167626_1" to="2789326916" from="5113434591" numLanes="1" width="2.0" shape="31.416502,133.412771 64.018906,71.443530 "/>
  <edge id="274167626_2" from="5113434591" to="2789326927" numLanes="1" width="2.0" shape="27.676032,140.484465 22.814574,149.683315 "/>
  <edge id="-274167626_2" to="5113434591" from="2789326927" numLanes="1" width="2.0" shape="22.814574,149.683315 27.676032,140.484465 "/>
  <edge id="274167620_2" from="2936890074" to="2936890079" numLanes="1" width="2.0" shape="147.943115,-97.347825 137.171556,-77.199525 "/>
  <edge id="-274167620_2" to="2936890074" from="2936890079" numLanes="1" width="2.0" shape="137.171556,-77.199525 147.943115,-97.347825 "/>
  <edge id="117802262_2" from="4298918943" to="2936890068" numLanes="1" width="2.0" shape="-36.036532,-168.785537 -39.591597,-162.092417 -57.725432,-127.970710 "/>
  <edge id="-117802262_2" to="4298918943" from="2936890068" numLanes="1" width="2.0" shape="-57.725432,-127.970710 -39.591597,-162.092417 -36.036532,-168.785537 "/>
  <edge id="117802262_4" from="2936890068" to="1326226017" numLanes="1" width="2.0" shape="-61.479718,-120.906339 -73.557617,-98.179327 "/>
  <edge id="-117802262_4" to="2936890068" from="1326226017" numLanes="1" width="2.0" shape="-73.557617,-98.179327 -61.479718,-120.906339 "/>
  <edge id="347989903_1" from="3542137756" to="5113434585" numLanes="1" width="4.0" shape="-46.311572,10.388591 -39.905575,13.916874 "/>
  <edge id="274167620_3" from="2936890079" to="2936890088" numLanes="1" width="2.0" shape="133.409343,-70.139380 112.504003,-30.780728 "/>
  <edge id="-274167620_3" to="2936890079" from="2936890088" numLanes="1" width="2.0" shape="112.504003,-30.780728 133.409343,-70.139380 "/>
  <edge id="290155062_1" from="2936890088" to="2936890085" numLanes="1" width="4.0" shape="108.034864,-30.891938 94.509429,-38.083796 91.497142,-39.684670 "/>
  <edge id="290155062_2" from="2936890085" to="Custom82" numLanes="1" width="4.0" shape="84.458883,-43.457435 49.993924,-62.090661 "/>
  <edge id="290155067_1" from="2789326897" to="1326225994" numLanes="1" width="2.0" shape="-125.342522,-35.947069 -121.024314,-33.545378 -114.425674,-29.864605 "/>
  <edge id="-290155067_1" to="2789326897" from="1326225994" numLanes="1" width="2.0" shape="-114.425674,-29.864605 -121.024314,-33.545378 -125.342522,-35.947069 "/>
  <edge id="290155067_2" from="1326225994" to="3542137755" numLanes="1" width="2.0" shape="-107.438121,-25.969208 -62.852818,-1.128702 -48.177242,7.048625 "/>
  <edge id="-290155067_2" to="1326225994" from="3542137755" numLanes="1" width="2.0" shape="-48.177242,7.048625 -62.852818,-1.128702 -107.438121,-25.969208 "/>
  <edge id="390655650_1" from="1452884319" to="4900190160" numLanes="1" width="4.0" shape="-206.031002,242.906098 -203.301890,277.462774 "/>
  <edge id="390655650_2" from="4900190160" to="Custom83" numLanes="1" width="4.0" shape="-202.672180,285.437889 -200.765337,309.592338 -200.765059,309.595818 -199.055136,330.784267 -199.031157,330.971114 -198.989704,331.154877 -198.931147,331.333923 -198.856003,331.506667 -198.764940,331.671574 -198.658765,331.827182 -198.538422,331.972110 -198.404976,332.105073 -198.259613,332.224890 -198.103621,332.330500 -197.938385,332.420965 -183.507456,339.459653 "/>
  <edge id="178758964_3" from="3939323017" to="1326226018" numLanes="1" width="2.0" shape="-133.587623,258.903898 -200.889383,221.349645 "/>
  <edge id="-178758964_3" to="3939323017" from="1326226018" numLanes="1" width="2.0" shape="-200.889383,221.349645 -133.587623,258.903898 "/>
  <edge id="117802267_3" from="2936890092" to="4107392362" numLanes="1" width="2.0" shape="-197.410490,78.984986 -178.799152,44.215087 -176.975580,40.809368 "/>
  <edge id="-117802267_3" to="2936890092" from="4107392362" numLanes="1" width="2.0" shape="-176.975580,40.809368 -178.799152,44.215087 -197.410490,78.984986 "/>
  <edge id="117802267_4" from="4107392362" to="1326226005" numLanes="1" width="2.0" shape="-173.199278,33.756741 -165.242194,18.896130 -145.454515,-18.070592 -137.105931,-33.661917 "/>
  <edge id="-117802267_4" to="4107392362" from="1326226005" numLanes="1" width="2.0" shape="-137.105931,-33.661917 -145.454515,-18.070592 -165.242194,18.896130 -173.199278,33.756741 "/>
  <edge id="408832731_1" from="4107392380" to="4107392385" numLanes="1" width="4.0" shape="-111.866277,275.492910 -133.046942,316.933140 -133.133862,317.128265 -133.199475,317.331546 -133.243035,317.540667 -133.603249,319.893261 -133.623795,320.096129 -133.623578,320.300035 -133.602601,320.502859 -133.561081,320.702493 -133.499450,320.896862 -133.418349,321.083946 -133.318620,321.261799 -133.201300,321.428574 -133.067609,321.582537 -131.417575,323.297717 -131.261473,323.443528 -131.090711,323.571858 -130.907236,323.681245 -118.981604,329.953497 "/>
  <edge id="408832731_2" from="4107392385" to="4107392386" numLanes="1" width="4.0" shape="-111.902581,333.678430 -93.780370,343.218666 "/>
  <edge id="347989903_2" from="5113434585" to="4107392360" numLanes="1" width="4.0" shape="-31.904559,15.971486 -12.704564,26.172044 "/>
  <edge id="-347989903_2" to="5113434585" from="4107392360" numLanes="1" width="4.0" shape="-12.704564,26.172044 -31.904559,15.971486 "/>
  <edge id="347989903_3" from="4107392360" to="2789326916" numLanes="1" width="4.0" shape="-5.560480,29.965679 60.731020,65.164979 62.349520,66.025579 "/>
  <edge id="-347989903_3" to="4107392360" from="2789326916" numLanes="1" width="4.0" shape="62.349520,66.025579 60.731020,65.164979 -5.560480,29.965679 "/>
  <edge id="274167620_5" from="4107392366" to="1326225984" numLanes="1" width="4.0" shape="67.624754,49.277034 65.185503,53.858898 "/>
  <edge id="274167620_4" from="2936890088" to="4107392354" numLanes="1" width="2.0" shape="108.747907,-23.717321 96.319972,-0.373520 "/>
  <edge id="-274167620_4" to="2936890088" from="4107392354" numLanes="1" width="2.0" shape="96.319972,-0.373520 108.747907,-23.717321 "/>
  <edge id="274167620_6" from="4107392354" to="4107392366" numLanes="1" width="2.0" shape="92.560780,6.688242 74.591253,40.448144 73.149796,43.155359 "/>
  <edge id="-274167620_6" to="4107392354" from="4107392366" numLanes="1" width="2.0" shape="73.149796,43.155359 74.591253,40.448144 92.560780,6.688242 "/>
  <edge id="132042023_2" from="5113434415" to="1452884154" numLanes="1" width="4.0" shape="103.902069,-304.337487 135.081590,-287.090669 145.934526,-280.943507 "/>
  <edge id="416029660_1" from="1452884154" to="4169020616" numLanes="1" width="4.0" shape="152.909953,-277.010549 163.887277,-270.849409 169.090659,-267.927907 "/>
  <edge id="416029660_2" from="4169020616" to="1452884107" numLanes="1" width="4.0" shape="177.177912,-270.339130 217.417329,-347.692929 217.505817,-347.887859 217.572963,-348.091130 217.617998,-348.300413 217.992677,-350.645819 218.014605,-350.849761 218.015530,-351.054876 217.995440,-351.259008 217.954549,-351.460008 217.893285,-351.655762 217.812294,-351.844213 217.712426,-352.023377 217.594734,-352.191370 217.460454,-352.346424 215.815541,-354.059776 215.659231,-354.206046 215.488183,-354.334772 215.304356,-354.444477 188.975325,-368.302947 "/>
  <edge id="117802262_3" from="1326226017" to="5113434588" numLanes="1" width="2.0" shape="-77.310898,-91.114422 -81.571436,-83.092024 -97.641015,-52.868473 -105.675699,-37.786637 "/>
  <edge id="-117802262_3" to="1326226017" from="5113434588" numLanes="1" width="2.0" shape="-105.675699,-37.786637 -97.641015,-52.868473 -81.571436,-83.092024 -77.310898,-91.114422 "/>
  <edge id="117802268_3" from="5113525260" to="5113526108" numLanes="1" width="2.0" shape="-109.202250,131.902087 -60.046011,158.846642 -46.685758,166.167714 "/>
  <edge id="-117802268_3" to="5113525260" from="5113526108" numLanes="1" width="2.0" shape="-46.685758,166.167714 -60.046011,158.846642 -109.202250,131.902087 "/>
  <edge id="117802268_4" from="5113526108" to="1716080380" numLanes="1" width="2.0" shape="-39.670506,170.013001 -9.256485,186.688738 "/>
  <edge id="-117802268_4" to="5113526108" from="1716080380" numLanes="1" width="2.0" shape="-9.256485,186.688738 -39.670506,170.013001 "/>
  <edge id="921953368_1" from="Custom84" to="8559297054" numLanes="1" width="4.0" shape="-257.361513,-223.895340 -226.421512,-207.389086 -226.406857,-207.381345 -209.858270,-198.728192 -209.708567,-198.657640 -209.553543,-198.599707 -209.394261,-198.554788 -206.801263,-197.938126 -206.609366,-197.902283 -206.414890,-197.885318 -206.219686,-197.887394 -206.025614,-197.908491 -203.179418,-198.359357 -202.979022,-198.401721 -202.784009,-198.464359 -202.596426,-198.546614 -199.715475,-199.990076 -199.516183,-200.104709 -199.331363,-200.241456 -197.721898,-201.582061 -197.567200,-201.725387 -197.428454,-201.884206 -196.285275,-203.341173 -196.175971,-203.494887 -196.081633,-203.658215 -179.266167,-236.226544 -179.179837,-236.417728 -179.114007,-236.616902 -178.443704,-239.069910 -178.406832,-239.230634 -178.383326,-239.393849 -178.197158,-241.216296 -178.186819,-241.411822 -178.195648,-241.607422 -178.223561,-241.801221 -178.625594,-243.869170 -178.666563,-244.039637 -178.722304,-244.205862 -179.305553,-245.721314 -179.375750,-245.882249 -179.459790,-246.036407 -180.097600,-247.093165 -180.226710,-247.281801 -180.376502,-247.454472 -181.391184,-248.497253 -181.569274,-248.659472 -181.765575,-248.799102 -183.230974,-249.713782 -183.346565,-249.780676 -212.374489,-265.309512 "/>
  <edge id="921953368_2" from="8559297054" to="Custom85" numLanes="1" width="4.0" shape="-219.393859,-269.107457 -222.347093,-270.723474 -222.532350,-270.812793 -222.725801,-270.882615 -224.588198,-271.448406 -224.839574,-271.507355 -226.692481,-271.817317 -226.912817,-271.841719 -227.134499,-271.841587 -229.478553,-271.710072 -229.687614,-271.687268 -229.893125,-271.642638 -230.092813,-271.576675 -232.177362,-270.764211 -232.362434,-270.681032 -232.538127,-270.579528 -232.702630,-270.460745 -234.667734,-268.884170 -234.811370,-268.757149 -234.942182,-268.616956 -236.880875,-266.328508 -236.987442,-266.191012 -237.081658,-266.044775 -238.452152,-263.699440 -238.489312,-263.632975 -241.555792,-257.894363 "/>
  <edge id="178758964_2" from="4107392382" to="4107392380" numLanes="1" width="2.0" shape="-93.930282,280.553630 -104.742413,274.736573 "/>
  <edge id="-178758964_2" to="4107392382" from="4107392380" numLanes="1" width="2.0" shape="-104.742413,274.736573 -93.930282,280.553630 "/>
  <edge id="178758964_4" from="4107392380" to="3939323017" numLanes="1" width="2.0" shape="-111.771035,270.915934 -126.588545,262.778454 "/>
  <edge id="-178758964_4" to="4107392380" from="3939323017" numLanes="1" width="2.0" shape="-126.588545,262.778454 -111.771035,270.915934 "/>
  <edge id="132042023_3" from="1452884154" to="1452884107" numLanes="1" width="4.0" shape="154.012704,-283.349298 161.011712,-296.907280 161.117472,-297.150483 185.038647,-363.956159 "/>
  <edge id="132042023_4" from="1452884107" to="Custom86" numLanes="1" width="4.0" shape="187.756022,-371.466324 224.825476,-472.862395 224.854152,-472.946592 238.676672,-516.696582 240.727052,-523.188215 240.728219,-523.191922 242.456954,-528.702467 247.753479,-545.594573 252.253102,-559.928532 257.462972,-576.527947 259.386584,-582.668484 281.882344,-582.367729 282.076638,-582.374581 282.269350,-582.400266 282.458657,-582.444541 284.895128,-583.140860 285.072534,-583.200674 285.243570,-583.276815 285.406737,-583.368616 285.560605,-583.475271 285.703826,-583.595847 285.835145,-583.729286 285.953411,-583.874421 286.057587,-584.029978 287.367537,-586.199144 287.459832,-586.370255 287.535077,-586.549519 287.592561,-586.735242 296.025655,-619.550944 296.068056,-619.762845 296.087347,-619.978083 296.083302,-620.194146 295.912241,-622.540745 295.889500,-622.729028 295.849027,-622.914311 295.791186,-623.094927 295.716497,-623.269253 295.625633,-623.435720 295.519409,-623.592832 295.398781,-623.739177 295.264833,-623.873438 295.118771,-623.994407 294.961908,-624.100998 292.955345,-625.329613 292.765220,-625.432337 292.565122,-625.513947 292.357387,-625.573493 290.943919,-625.897156 290.074244,-626.428405 289.990004,-627.444013 295.872331,-651.428771 302.798788,-664.382543 334.187185,-722.276200 "/>
</edges>
